 EPA STORM WATER MANAGEMENT MODEL - VERSION 5.2 (Build 5.2.4)
  ------------------------------------------------------------

  test 
  WARNING 04: minimum elevation drop used for Conduit CN1_S0
  WARNING 04: minimum elevation drop used for Conduit CN1_S1
  WARNING 04: minimum elevation drop used for Conduit CN1_S2
  WARNING 04: minimum elevation drop used for Conduit CN1_S3
  WARNING 04: minimum elevation drop used for Conduit CN1_S4
  WARNING 04: minimum elevation drop used for Conduit CN1_S5
  WARNING 04: minimum elevation drop used for Conduit CN1_S6
  WARNING 04: minimum elevation drop used for Conduit CN1_S7
  WARNING 04: minimum elevation drop used for Conduit CN1_S9
  WARNING 04: minimum elevation drop used for Conduit CN1_S10
  WARNING 04: minimum elevation drop used for Conduit CN1_S11
  WARNING 04: minimum elevation drop used for Conduit CN1_S12
  WARNING 04: minimum elevation drop used for Conduit CN1_S13
  WARNING 04: minimum elevation drop used for Conduit CN1_S14
  WARNING 04: minimum elevation drop used for Conduit CN1_S15
  WARNING 04: minimum elevation drop used for Conduit CN1_S16
  WARNING 04: minimum elevation drop used for Conduit CN1_S17
  WARNING 04: minimum elevation drop used for Conduit CN1_S18
  WARNING 04: minimum elevation drop used for Conduit CN1_S19
  WARNING 04: minimum elevation drop used for Conduit CN2_S1
  WARNING 04: minimum elevation drop used for Conduit CN2_S2
  WARNING 04: minimum elevation drop used for Conduit CN2_S3
  WARNING 04: minimum elevation drop used for Conduit CN2_S4
  WARNING 04: minimum elevation drop used for Conduit CN2_S5
  WARNING 04: minimum elevation drop used for Conduit CN2_S7
  WARNING 04: minimum elevation drop used for Conduit CN2_S8
  WARNING 04: minimum elevation drop used for Conduit CN2_S9
  WARNING 04: minimum elevation drop used for Conduit CN2_S10
  WARNING 04: minimum elevation drop used for Conduit CN2_S11
  WARNING 04: minimum elevation drop used for Conduit CN2_S12
  WARNING 04: minimum elevation drop used for Conduit CN2_S13
  WARNING 04: minimum elevation drop used for Conduit CN2_S14
  WARNING 04: minimum elevation drop used for Conduit CN2_S16
  WARNING 04: minimum elevation drop used for Conduit CN2_S18
  WARNING 04: minimum elevation drop used for Conduit CN3_S0
  WARNING 04: minimum elevation drop used for Conduit CN3_S1
  WARNING 04: minimum elevation drop used for Conduit CN4_S0
  WARNING 04: minimum elevation drop used for Conduit CN4_S2
  WARNING 04: minimum elevation drop used for Conduit CN7_S0
  WARNING 04: minimum elevation drop used for Conduit CN7_S1
  WARNING 04: minimum elevation drop used for Conduit CN9_S0
  WARNING 04: minimum elevation drop used for Conduit CN10_S0
  WARNING 04: minimum elevation drop used for Conduit CN11_S1
  WARNING 04: minimum elevation drop used for Conduit CN11_S2
  WARNING 04: minimum elevation drop used for Conduit CN11_S3
  WARNING 04: minimum elevation drop used for Conduit CN11_S5
  WARNING 04: minimum elevation drop used for Conduit CN11_S6
  WARNING 04: minimum elevation drop used for Conduit CN11_S8
  WARNING 04: minimum elevation drop used for Conduit CN11_S9
  WARNING 04: minimum elevation drop used for Conduit CN11_S11
  WARNING 04: minimum elevation drop used for Conduit CN11_S12
  WARNING 04: minimum elevation drop used for Conduit CN11_S13
  WARNING 04: minimum elevation drop used for Conduit CN11_S14
  WARNING 04: minimum elevation drop used for Conduit CN11_S15
  WARNING 04: minimum elevation drop used for Conduit CN11_S17
  WARNING 04: minimum elevation drop used for Conduit CN11_S18
  WARNING 04: minimum elevation drop used for Conduit CN11_S19
  WARNING 04: minimum elevation drop used for Conduit CN11_S20
  WARNING 04: minimum elevation drop used for Conduit CN11_S21
  WARNING 04: minimum elevation drop used for Conduit CN11_S22
  WARNING 04: minimum elevation drop used for Conduit CN11_S23
  WARNING 04: minimum elevation drop used for Conduit CN11_S24
  WARNING 04: minimum elevation drop used for Conduit CN11_S26
  WARNING 04: minimum elevation drop used for Conduit CN11_S27
  WARNING 04: minimum elevation drop used for Conduit CN11_S28
  WARNING 04: minimum elevation drop used for Conduit CN11_S29
  WARNING 04: minimum elevation drop used for Conduit CN11_S30
  WARNING 04: minimum elevation drop used for Conduit CN11_S31
  WARNING 04: minimum elevation drop used for Conduit CN11_S32
  WARNING 04: minimum elevation drop used for Conduit CN11_S33
  WARNING 04: minimum elevation drop used for Conduit CN11_S35
  WARNING 04: minimum elevation drop used for Conduit CN11_S36
  WARNING 04: minimum elevation drop used for Conduit CN11_S37
  WARNING 04: minimum elevation drop used for Conduit CN11_S38
  WARNING 04: minimum elevation drop used for Conduit CN11_S39
  WARNING 04: minimum elevation drop used for Conduit CN11_S40
  WARNING 04: minimum elevation drop used for Conduit CN11_S42
  WARNING 04: minimum elevation drop used for Conduit CN11_S43
  WARNING 04: minimum elevation drop used for Conduit CN11_S44
  WARNING 04: minimum elevation drop used for Conduit CN11_S45
  WARNING 04: minimum elevation drop used for Conduit CN11_S46
  WARNING 04: minimum elevation drop used for Conduit CN11_S47
  WARNING 04: minimum elevation drop used for Conduit CN11_S48
  WARNING 04: minimum elevation drop used for Conduit CN11_S49
  WARNING 04: minimum elevation drop used for Conduit CN11_S52
  WARNING 04: minimum elevation drop used for Conduit CN11_S55
  WARNING 04: minimum elevation drop used for Conduit CN11_S57
  WARNING 04: minimum elevation drop used for Conduit CN11_S58
  WARNING 04: minimum elevation drop used for Conduit CN11_S59
  WARNING 04: minimum elevation drop used for Conduit CN11_S60
  WARNING 04: minimum elevation drop used for Conduit CN11_S61
  WARNING 04: minimum elevation drop used for Conduit CN11_S62
  WARNING 04: minimum elevation drop used for Conduit CN11_S63
  WARNING 04: minimum elevation drop used for Conduit CN11_S64
  WARNING 04: minimum elevation drop used for Conduit CN11_S65
  WARNING 04: minimum elevation drop used for Conduit CN11_S66
  WARNING 04: minimum elevation drop used for Conduit CN11_S67
  WARNING 04: minimum elevation drop used for Conduit CN11_S68
  WARNING 04: minimum elevation drop used for Conduit CN11_S69
  WARNING 04: minimum elevation drop used for Conduit CN11_S70
  WARNING 04: minimum elevation drop used for Conduit CN11_S71
  WARNING 04: minimum elevation drop used for Conduit CN11_S72
  WARNING 04: minimum elevation drop used for Conduit CN11_S73
  WARNING 04: minimum elevation drop used for Conduit CN11_S74
  WARNING 04: minimum elevation drop used for Conduit CN11_S76
  WARNING 04: minimum elevation drop used for Conduit CN11_S77
  WARNING 04: minimum elevation drop used for Conduit CN11_S78
  WARNING 04: minimum elevation drop used for Conduit CN11_S79
  WARNING 04: minimum elevation drop used for Conduit CN11_S80
  WARNING 04: minimum elevation drop used for Conduit CN11_S81
  WARNING 04: minimum elevation drop used for Conduit CN11_S82_0
  WARNING 04: minimum elevation drop used for Conduit CN11_S83
  WARNING 04: minimum elevation drop used for Conduit CN12_S0
  WARNING 04: minimum elevation drop used for Conduit CN12_S1
  WARNING 04: minimum elevation drop used for Conduit CN12_S2
  WARNING 04: minimum elevation drop used for Conduit CN12_S3
  WARNING 04: minimum elevation drop used for Conduit CN12_S4
  WARNING 04: minimum elevation drop used for Conduit CN12_S5
  WARNING 04: minimum elevation drop used for Conduit CN12_S7
  WARNING 04: minimum elevation drop used for Conduit CN12_S8
  WARNING 04: minimum elevation drop used for Conduit CN12_S9
  WARNING 04: minimum elevation drop used for Conduit CN12_S10
  WARNING 04: minimum elevation drop used for Conduit CN12_S11
  WARNING 04: minimum elevation drop used for Conduit CN12_S12
  WARNING 04: minimum elevation drop used for Conduit CN12_S13
  WARNING 04: minimum elevation drop used for Conduit CN12_S14
  WARNING 04: minimum elevation drop used for Conduit CN12_S15
  WARNING 04: minimum elevation drop used for Conduit CN12_S16
  WARNING 04: minimum elevation drop used for Conduit CN12_S17
  WARNING 04: minimum elevation drop used for Conduit CN12_S18
  WARNING 04: minimum elevation drop used for Conduit CN12_S19
  WARNING 04: minimum elevation drop used for Conduit CN12_S20
  WARNING 04: minimum elevation drop used for Conduit CN12_S21
  WARNING 04: minimum elevation drop used for Conduit CN12_S22
  WARNING 04: minimum elevation drop used for Conduit CN12_S23
  WARNING 04: minimum elevation drop used for Conduit CN12_S26
  WARNING 04: minimum elevation drop used for Conduit CN12_S27
  WARNING 04: minimum elevation drop used for Conduit CN12_S28
  WARNING 04: minimum elevation drop used for Conduit CN12_S29
  WARNING 04: minimum elevation drop used for Conduit CN12_S30
  WARNING 04: minimum elevation drop used for Conduit CN12_S32
  WARNING 04: minimum elevation drop used for Conduit CN12_S35
  WARNING 04: minimum elevation drop used for Conduit CN12_S36
  WARNING 04: minimum elevation drop used for Conduit CN12_S37
  WARNING 04: minimum elevation drop used for Conduit CN12_S38
  WARNING 04: minimum elevation drop used for Conduit CN12_S40
  WARNING 04: minimum elevation drop used for Conduit CN13_S0
  WARNING 04: minimum elevation drop used for Conduit CN13_S1_0
  WARNING 04: minimum elevation drop used for Conduit CN13_S1_1
  WARNING 04: minimum elevation drop used for Conduit CN14_S0
  WARNING 04: minimum elevation drop used for Conduit CN14_S1
  WARNING 04: minimum elevation drop used for Conduit CN15_S1
  WARNING 04: minimum elevation drop used for Conduit CN16_S1
  WARNING 04: minimum elevation drop used for Conduit CN16_S2
  WARNING 04: minimum elevation drop used for Conduit CN16_S3
  WARNING 04: minimum elevation drop used for Conduit CN16_S4
  WARNING 04: minimum elevation drop used for Conduit CN16_S6
  WARNING 04: minimum elevation drop used for Conduit CN16_S8
  WARNING 04: minimum elevation drop used for Conduit CN16_S9
  WARNING 04: minimum elevation drop used for Conduit CN16_S10
  WARNING 04: minimum elevation drop used for Conduit CN16_S12
  WARNING 04: minimum elevation drop used for Conduit CN16_S13
  WARNING 04: minimum elevation drop used for Conduit CN16_S14
  WARNING 04: minimum elevation drop used for Conduit CN16_S15
  WARNING 04: minimum elevation drop used for Conduit CN16_S16
  WARNING 04: minimum elevation drop used for Conduit CN16_S17
  WARNING 04: minimum elevation drop used for Conduit CN16_S18
  WARNING 04: minimum elevation drop used for Conduit CN16_S19
  WARNING 04: minimum elevation drop used for Conduit CN18_S0
  WARNING 04: minimum elevation drop used for Conduit CN18_S1
  WARNING 04: minimum elevation drop used for Conduit CN19_S0
  WARNING 04: minimum elevation drop used for Conduit CN19_S1
  WARNING 04: minimum elevation drop used for Conduit CN19_S2
  WARNING 04: minimum elevation drop used for Conduit CN19_S5
  WARNING 04: minimum elevation drop used for Conduit CN19_S6
  WARNING 04: minimum elevation drop used for Conduit CN19_S8
  WARNING 04: minimum elevation drop used for Conduit CN19_S9
  WARNING 04: minimum elevation drop used for Conduit CN19_S11
  WARNING 04: minimum elevation drop used for Conduit CN19_S12
  WARNING 04: minimum elevation drop used for Conduit CN19_S14
  WARNING 04: minimum elevation drop used for Conduit CN19_S15
  WARNING 04: minimum elevation drop used for Conduit CN19_S16
  WARNING 04: minimum elevation drop used for Conduit CN20_S0
  WARNING 04: minimum elevation drop used for Conduit CN21_S1
  WARNING 04: minimum elevation drop used for Conduit CN21_S2
  WARNING 04: minimum elevation drop used for Conduit CN21_S4
  WARNING 04: minimum elevation drop used for Conduit CN21_S5
  WARNING 04: minimum elevation drop used for Conduit CN22_S2
  WARNING 04: minimum elevation drop used for Conduit CN22_S3
  WARNING 04: minimum elevation drop used for Conduit CN22_S4
  WARNING 04: minimum elevation drop used for Conduit CN22_S5
  WARNING 04: minimum elevation drop used for Conduit CN22_S6
  WARNING 04: minimum elevation drop used for Conduit CN22_S8
  WARNING 08: elevation drop exceeds length for Conduit CN22_S9
  WARNING 04: minimum elevation drop used for Conduit CN22_S10
  WARNING 04: minimum elevation drop used for Conduit CN22_S12
  WARNING 04: minimum elevation drop used for Conduit CN22_S14
  WARNING 04: minimum elevation drop used for Conduit CN22_S15
  WARNING 04: minimum elevation drop used for Conduit CN22_S16
  WARNING 04: minimum elevation drop used for Conduit CN22_S18
  WARNING 04: minimum elevation drop used for Conduit CN22_S19
  WARNING 04: minimum elevation drop used for Conduit CN22_S22
  WARNING 04: minimum elevation drop used for Conduit CN22_S23
  WARNING 04: minimum elevation drop used for Conduit CN22_S26
  WARNING 04: minimum elevation drop used for Conduit CN22_S29
  WARNING 04: minimum elevation drop used for Conduit CN22_S30
  WARNING 04: minimum elevation drop used for Conduit CN22_S31
  WARNING 04: minimum elevation drop used for Conduit CN22_S32
  WARNING 04: minimum elevation drop used for Conduit CN22_S33
  WARNING 04: minimum elevation drop used for Conduit CN22_S38
  WARNING 04: minimum elevation drop used for Conduit CN23_S0
  WARNING 04: minimum elevation drop used for Conduit CN24_S0
  WARNING 04: minimum elevation drop used for Conduit CN25_S0
  WARNING 04: minimum elevation drop used for Conduit CN25_S2
  WARNING 04: minimum elevation drop used for Conduit CN26_S0
  WARNING 04: minimum elevation drop used for Conduit CN26_S1
  WARNING 04: minimum elevation drop used for Conduit CN26_S2
  WARNING 04: minimum elevation drop used for Conduit CN26_S3
  WARNING 04: minimum elevation drop used for Conduit CN26_S5
  WARNING 04: minimum elevation drop used for Conduit CN26_S6
  WARNING 04: minimum elevation drop used for Conduit CN26_S7
  WARNING 04: minimum elevation drop used for Conduit CN26_S8
  WARNING 04: minimum elevation drop used for Conduit CN26_S10
  WARNING 04: minimum elevation drop used for Conduit CN26_S11
  WARNING 04: minimum elevation drop used for Conduit CN26_S12
  WARNING 04: minimum elevation drop used for Conduit CN26_S13
  WARNING 04: minimum elevation drop used for Conduit CN26_S14
  WARNING 04: minimum elevation drop used for Conduit CN26_S15
  WARNING 04: minimum elevation drop used for Conduit CN26_S17
  WARNING 04: minimum elevation drop used for Conduit CN26_S18
  WARNING 04: minimum elevation drop used for Conduit CN26_S19
  WARNING 04: minimum elevation drop used for Conduit CN26_S20
  WARNING 04: minimum elevation drop used for Conduit CN27_S0
  WARNING 04: minimum elevation drop used for Conduit CN27_S1
  WARNING 04: minimum elevation drop used for Conduit CN28_S0
  WARNING 04: minimum elevation drop used for Conduit CN28_S1
  WARNING 04: minimum elevation drop used for Conduit CN28_S2
  WARNING 04: minimum elevation drop used for Conduit CN28_S3
  WARNING 04: minimum elevation drop used for Conduit CN28_S4
  WARNING 04: minimum elevation drop used for Conduit CN28_S5
  WARNING 04: minimum elevation drop used for Conduit CN28_S7
  WARNING 04: minimum elevation drop used for Conduit CN28_S8
  WARNING 04: minimum elevation drop used for Conduit CN28_S9
  WARNING 04: minimum elevation drop used for Conduit CN28_S10
  WARNING 04: minimum elevation drop used for Conduit CN28_S11
  WARNING 04: minimum elevation drop used for Conduit CN28_S12
  WARNING 04: minimum elevation drop used for Conduit CN28_S13
  WARNING 04: minimum elevation drop used for Conduit CN28_S14
  WARNING 04: minimum elevation drop used for Conduit CN28_S15
  WARNING 04: minimum elevation drop used for Conduit CN28_S17
  WARNING 04: minimum elevation drop used for Conduit CN28_S18
  WARNING 04: minimum elevation drop used for Conduit CN28_S19
  WARNING 04: minimum elevation drop used for Conduit CN28_S20
  WARNING 04: minimum elevation drop used for Conduit CN28_S21
  WARNING 04: minimum elevation drop used for Conduit CN28_S23
  WARNING 04: minimum elevation drop used for Conduit CN28_S24
  WARNING 04: minimum elevation drop used for Conduit CN28_S25
  WARNING 04: minimum elevation drop used for Conduit CN28_S26
  WARNING 04: minimum elevation drop used for Conduit CN28_S27
  WARNING 04: minimum elevation drop used for Conduit CN28_S28
  WARNING 04: minimum elevation drop used for Conduit CN28_S29
  WARNING 04: minimum elevation drop used for Conduit CN28_S31
  WARNING 04: minimum elevation drop used for Conduit CN28_S32
  WARNING 04: minimum elevation drop used for Conduit CN28_S33
  WARNING 04: minimum elevation drop used for Conduit CN28_S34
  WARNING 04: minimum elevation drop used for Conduit CN28_S36
  WARNING 04: minimum elevation drop used for Conduit CN28_S37
  WARNING 04: minimum elevation drop used for Conduit CN28_S38
  WARNING 04: minimum elevation drop used for Conduit CN28_S39
  WARNING 04: minimum elevation drop used for Conduit CN28_S40
  WARNING 04: minimum elevation drop used for Conduit CN28_S41
  WARNING 04: minimum elevation drop used for Conduit CN28_S42
  WARNING 04: minimum elevation drop used for Conduit CN28_S43
  WARNING 04: minimum elevation drop used for Conduit CN28_S45
  WARNING 04: minimum elevation drop used for Conduit CN28_S46
  WARNING 04: minimum elevation drop used for Conduit CN28_S47
  WARNING 04: minimum elevation drop used for Conduit CN28_S48
  WARNING 04: minimum elevation drop used for Conduit CN28_S49
  WARNING 04: minimum elevation drop used for Conduit CN28_S50
  WARNING 04: minimum elevation drop used for Conduit CN28_S51
  WARNING 04: minimum elevation drop used for Conduit CN28_S52
  WARNING 04: minimum elevation drop used for Conduit CN28_S53
  WARNING 04: minimum elevation drop used for Conduit CN28_S54
  WARNING 04: minimum elevation drop used for Conduit CN28_S56
  WARNING 04: minimum elevation drop used for Conduit CN28_S57
  WARNING 04: minimum elevation drop used for Conduit CN28_S58
  WARNING 04: minimum elevation drop used for Conduit CN28_S59
  WARNING 04: minimum elevation drop used for Conduit CN28_S60
  WARNING 04: minimum elevation drop used for Conduit CN28_S62
  WARNING 04: minimum elevation drop used for Conduit CN28_S63
  WARNING 04: minimum elevation drop used for Conduit CN28_S64
  WARNING 04: minimum elevation drop used for Conduit CN28_S65
  WARNING 04: minimum elevation drop used for Conduit CN28_S66
  WARNING 04: minimum elevation drop used for Conduit CN28_S67
  WARNING 04: minimum elevation drop used for Conduit CN28_S68
  WARNING 04: minimum elevation drop used for Conduit CN28_S69
  WARNING 04: minimum elevation drop used for Conduit CN28_S70
  WARNING 04: minimum elevation drop used for Conduit CN28_S72
  WARNING 04: minimum elevation drop used for Conduit CN28_S73
  WARNING 04: minimum elevation drop used for Conduit CN28_S74
  WARNING 04: minimum elevation drop used for Conduit CN28_S76
  WARNING 04: minimum elevation drop used for Conduit CN28_S77
  WARNING 04: minimum elevation drop used for Conduit CN28_S78
  WARNING 04: minimum elevation drop used for Conduit CN28_S79
  WARNING 04: minimum elevation drop used for Conduit CN28_S80
  WARNING 04: minimum elevation drop used for Conduit CN28_S81
  WARNING 04: minimum elevation drop used for Conduit CN28_S82
  WARNING 08: elevation drop exceeds length for Conduit CN28_S83
  WARNING 04: minimum elevation drop used for Conduit CN28_S84
  WARNING 04: minimum elevation drop used for Conduit CN28_S85
  WARNING 04: minimum elevation drop used for Conduit CN28_S86
  WARNING 04: minimum elevation drop used for Conduit CN28_S87
  WARNING 04: minimum elevation drop used for Conduit CN28_S88
  WARNING 04: minimum elevation drop used for Conduit CN28_S89
  WARNING 04: minimum elevation drop used for Conduit CN28_S90
  WARNING 04: minimum elevation drop used for Conduit CN28_S91
  WARNING 04: minimum elevation drop used for Conduit CN28_S92
  WARNING 04: minimum elevation drop used for Conduit CN28_S93
  WARNING 04: minimum elevation drop used for Conduit CN28_S94
  WARNING 04: minimum elevation drop used for Conduit CN28_S95
  WARNING 04: minimum elevation drop used for Conduit CN28_S96
  WARNING 04: minimum elevation drop used for Conduit CN28_S97
  WARNING 04: minimum elevation drop used for Conduit CN28_S98
  WARNING 04: minimum elevation drop used for Conduit CN28_S100
  WARNING 04: minimum elevation drop used for Conduit CN28_S101
  WARNING 04: minimum elevation drop used for Conduit CN28_S102
  WARNING 04: minimum elevation drop used for Conduit CN28_S103
  WARNING 04: minimum elevation drop used for Conduit CN28_S104
  WARNING 04: minimum elevation drop used for Conduit CN28_S105
  WARNING 04: minimum elevation drop used for Conduit CN28_S106
  WARNING 04: minimum elevation drop used for Conduit CN28_S107
  WARNING 04: minimum elevation drop used for Conduit CN28_S108
  WARNING 04: minimum elevation drop used for Conduit CN28_S109
  WARNING 04: minimum elevation drop used for Conduit CN28_S110
  WARNING 04: minimum elevation drop used for Conduit CN28_S111
  WARNING 04: minimum elevation drop used for Conduit CN28_S112
  WARNING 04: minimum elevation drop used for Conduit CN28_S113
  WARNING 04: minimum elevation drop used for Conduit CN28_S114
  WARNING 04: minimum elevation drop used for Conduit CN28_S115
  WARNING 04: minimum elevation drop used for Conduit CN28_S116
  WARNING 04: minimum elevation drop used for Conduit CN28_S117
  WARNING 04: minimum elevation drop used for Conduit CN28_S118
  WARNING 04: minimum elevation drop used for Conduit CN28_S119
  WARNING 04: minimum elevation drop used for Conduit CN28_S120
  WARNING 04: minimum elevation drop used for Conduit CN28_S121
  WARNING 04: minimum elevation drop used for Conduit CN28_S122
  WARNING 04: minimum elevation drop used for Conduit CN28_S123
  WARNING 04: minimum elevation drop used for Conduit CN28_S124
  WARNING 04: minimum elevation drop used for Conduit CN28_S125
  WARNING 04: minimum elevation drop used for Conduit CN28_S126
  WARNING 04: minimum elevation drop used for Conduit CN28_S127
  WARNING 04: minimum elevation drop used for Conduit CN28_S128
  WARNING 04: minimum elevation drop used for Conduit CN28_S129
  WARNING 04: minimum elevation drop used for Conduit CN28_S130
  WARNING 04: minimum elevation drop used for Conduit CN28_S131
  WARNING 04: minimum elevation drop used for Conduit CN28_S132
  WARNING 04: minimum elevation drop used for Conduit CN28_S133
  WARNING 04: minimum elevation drop used for Conduit CN28_S134
  WARNING 04: minimum elevation drop used for Conduit CN28_S135
  WARNING 04: minimum elevation drop used for Conduit CN28_S136
  WARNING 04: minimum elevation drop used for Conduit CN28_S137
  WARNING 04: minimum elevation drop used for Conduit CN28_S138
  WARNING 04: minimum elevation drop used for Conduit CN28_S139
  WARNING 04: minimum elevation drop used for Conduit CN28_S140
  WARNING 04: minimum elevation drop used for Conduit CN28_S141
  WARNING 04: minimum elevation drop used for Conduit CN28_S144
  WARNING 04: minimum elevation drop used for Conduit CN28_S145
  WARNING 04: minimum elevation drop used for Conduit CN28_S146
  WARNING 04: minimum elevation drop used for Conduit CN28_S147
  WARNING 04: minimum elevation drop used for Conduit CN28_S148
  WARNING 04: minimum elevation drop used for Conduit CN28_S149
  WARNING 04: minimum elevation drop used for Conduit CN28_S150
  WARNING 04: minimum elevation drop used for Conduit CN28_S153
  WARNING 04: minimum elevation drop used for Conduit CN28_S154
  WARNING 04: minimum elevation drop used for Conduit CN28_S155
  WARNING 04: minimum elevation drop used for Conduit CN28_S156
  WARNING 04: minimum elevation drop used for Conduit CN28_S157
  WARNING 04: minimum elevation drop used for Conduit CN28_S158
  WARNING 04: minimum elevation drop used for Conduit CN28_S159
  WARNING 04: minimum elevation drop used for Conduit CN28_S160
  WARNING 04: minimum elevation drop used for Conduit CN28_S161
  WARNING 04: minimum elevation drop used for Conduit CN28_S162
  WARNING 04: minimum elevation drop used for Conduit CN28_S163
  WARNING 04: minimum elevation drop used for Conduit CN28_S164
  WARNING 04: minimum elevation drop used for Conduit CN28_S166
  WARNING 04: minimum elevation drop used for Conduit CN28_S167
  WARNING 04: minimum elevation drop used for Conduit CN28_S168
  WARNING 04: minimum elevation drop used for Conduit CN28_S169
  WARNING 04: minimum elevation drop used for Conduit CN28_S170
  WARNING 04: minimum elevation drop used for Conduit CN28_S171
  WARNING 04: minimum elevation drop used for Conduit CN28_S174
  WARNING 04: minimum elevation drop used for Conduit CN28_S175
  WARNING 04: minimum elevation drop used for Conduit CN28_S176
  WARNING 04: minimum elevation drop used for Conduit CN28_S177
  WARNING 04: minimum elevation drop used for Conduit CN28_S178
  WARNING 04: minimum elevation drop used for Conduit CN28_S179
  WARNING 04: minimum elevation drop used for Conduit CN28_S180
  WARNING 04: minimum elevation drop used for Conduit CN28_S181
  WARNING 04: minimum elevation drop used for Conduit CN28_S182
  WARNING 04: minimum elevation drop used for Conduit CN28_S183
  WARNING 04: minimum elevation drop used for Conduit CN28_S184
  WARNING 04: minimum elevation drop used for Conduit CN28_S185
  WARNING 04: minimum elevation drop used for Conduit CN28_S186
  WARNING 04: minimum elevation drop used for Conduit CN28_S187
  WARNING 04: minimum elevation drop used for Conduit CN28_S188
  WARNING 04: minimum elevation drop used for Conduit CN28_S189
  WARNING 04: minimum elevation drop used for Conduit CN28_S190
  WARNING 04: minimum elevation drop used for Conduit CN28_S191
  WARNING 04: minimum elevation drop used for Conduit CN28_S192
  WARNING 04: minimum elevation drop used for Conduit CN28_S193
  WARNING 04: minimum elevation drop used for Conduit CN28_S194
  WARNING 04: minimum elevation drop used for Conduit CN28_S195
  WARNING 04: minimum elevation drop used for Conduit CN28_S196
  WARNING 04: minimum elevation drop used for Conduit CN28_S197
  WARNING 04: minimum elevation drop used for Conduit CN28_S198
  WARNING 04: minimum elevation drop used for Conduit CN28_S199
  WARNING 04: minimum elevation drop used for Conduit CN28_S200
  WARNING 04: minimum elevation drop used for Conduit CN28_S201
  WARNING 04: minimum elevation drop used for Conduit CN28_S202
  WARNING 04: minimum elevation drop used for Conduit CN28_S204
  WARNING 04: minimum elevation drop used for Conduit CN28_S205
  WARNING 04: minimum elevation drop used for Conduit CN28_S206
  WARNING 04: minimum elevation drop used for Conduit CN28_S207
  WARNING 04: minimum elevation drop used for Conduit CN28_S208
  WARNING 04: minimum elevation drop used for Conduit CN28_S209
  WARNING 04: minimum elevation drop used for Conduit CN28_S210
  WARNING 04: minimum elevation drop used for Conduit CN28_S211
  WARNING 04: minimum elevation drop used for Conduit CN28_S212
  WARNING 04: minimum elevation drop used for Conduit CN28_S213
  WARNING 04: minimum elevation drop used for Conduit CN28_S214
  WARNING 04: minimum elevation drop used for Conduit CN28_S215
  WARNING 04: minimum elevation drop used for Conduit CN28_S216
  WARNING 04: minimum elevation drop used for Conduit CN28_S217
  WARNING 04: minimum elevation drop used for Conduit CN28_S218
  WARNING 04: minimum elevation drop used for Conduit CN28_S219
  WARNING 04: minimum elevation drop used for Conduit CN28_S221
  WARNING 04: minimum elevation drop used for Conduit CN28_S222
  WARNING 04: minimum elevation drop used for Conduit CN28_S223
  WARNING 04: minimum elevation drop used for Conduit CN28_S224
  WARNING 04: minimum elevation drop used for Conduit CN28_S225
  WARNING 04: minimum elevation drop used for Conduit CN28_S227
  WARNING 04: minimum elevation drop used for Conduit CN28_S228
  WARNING 04: minimum elevation drop used for Conduit CN28_S229
  WARNING 04: minimum elevation drop used for Conduit CN28_S230
  WARNING 04: minimum elevation drop used for Conduit CN28_S231
  WARNING 08: elevation drop exceeds length for Conduit CN28_S232
  WARNING 04: minimum elevation drop used for Conduit CN28_S233
  WARNING 08: elevation drop exceeds length for Conduit CN28_S234
  WARNING 04: minimum elevation drop used for Conduit CN28_S235
  WARNING 08: elevation drop exceeds length for Conduit CN28_S236
  WARNING 04: minimum elevation drop used for Conduit CN28_S237
  WARNING 04: minimum elevation drop used for Conduit CN28_S238
  WARNING 04: minimum elevation drop used for Conduit CN28_S239
  WARNING 04: minimum elevation drop used for Conduit CN28_S240
  WARNING 04: minimum elevation drop used for Conduit CN28_S241
  WARNING 04: minimum elevation drop used for Conduit CN28_S242
  WARNING 04: minimum elevation drop used for Conduit CN28_S244
  WARNING 04: minimum elevation drop used for Conduit CN28_S245
  WARNING 04: minimum elevation drop used for Conduit CN28_S246
  WARNING 04: minimum elevation drop used for Conduit CN28_S247
  WARNING 08: elevation drop exceeds length for Conduit CN28_S248
  WARNING 04: minimum elevation drop used for Conduit CN28_S249
  WARNING 04: minimum elevation drop used for Conduit CN28_S250
  WARNING 04: minimum elevation drop used for Conduit CN28_S251
  WARNING 04: minimum elevation drop used for Conduit CN28_S252
  WARNING 04: minimum elevation drop used for Conduit CN28_S253
  WARNING 04: minimum elevation drop used for Conduit CN28_S254
  WARNING 04: minimum elevation drop used for Conduit CN28_S255
  WARNING 04: minimum elevation drop used for Conduit CN28_S256
  WARNING 08: elevation drop exceeds length for Conduit CN28_S257
  WARNING 04: minimum elevation drop used for Conduit CN28_S258
  WARNING 04: minimum elevation drop used for Conduit CN28_S259
  WARNING 04: minimum elevation drop used for Conduit CN28_S260
  WARNING 04: minimum elevation drop used for Conduit CN28_S261
  WARNING 04: minimum elevation drop used for Conduit CN28_S262
  WARNING 04: minimum elevation drop used for Conduit CN28_S263
  WARNING 04: minimum elevation drop used for Conduit CN28_S264
  WARNING 04: minimum elevation drop used for Conduit CN28_S265
  WARNING 04: minimum elevation drop used for Conduit CN28_S266
  WARNING 04: minimum elevation drop used for Conduit CN28_S267
  WARNING 04: minimum elevation drop used for Conduit CN28_S268
  WARNING 04: minimum elevation drop used for Conduit CN28_S269
  WARNING 04: minimum elevation drop used for Conduit CN28_S270
  WARNING 04: minimum elevation drop used for Conduit CN28_S271
  WARNING 04: minimum elevation drop used for Conduit CN28_S272
  WARNING 04: minimum elevation drop used for Conduit CN28_S273
  WARNING 04: minimum elevation drop used for Conduit CN28_S274
  WARNING 04: minimum elevation drop used for Conduit CN28_S275
  WARNING 04: minimum elevation drop used for Conduit CN28_S276
  WARNING 04: minimum elevation drop used for Conduit CN28_S277
  WARNING 04: minimum elevation drop used for Conduit CN28_S278
  WARNING 04: minimum elevation drop used for Conduit CN28_S279
  WARNING 04: minimum elevation drop used for Conduit CN28_S280
  WARNING 04: minimum elevation drop used for Conduit CN28_S281
  WARNING 04: minimum elevation drop used for Conduit CN28_S282
  WARNING 04: minimum elevation drop used for Conduit CN28_S283
  WARNING 04: minimum elevation drop used for Conduit CN28_S284
  WARNING 04: minimum elevation drop used for Conduit CN28_S285
  WARNING 04: minimum elevation drop used for Conduit CN28_S286
  WARNING 04: minimum elevation drop used for Conduit CN28_S287
  WARNING 04: minimum elevation drop used for Conduit CN28_S288
  WARNING 04: minimum elevation drop used for Conduit CN28_S289
  WARNING 04: minimum elevation drop used for Conduit CN28_S290
  WARNING 04: minimum elevation drop used for Conduit CN28_S291
  WARNING 04: minimum elevation drop used for Conduit CN28_S292
  WARNING 04: minimum elevation drop used for Conduit CN28_S293
  WARNING 04: minimum elevation drop used for Conduit CN28_S294
  WARNING 04: minimum elevation drop used for Conduit CN28_S295
  WARNING 04: minimum elevation drop used for Conduit CN28_S296
  WARNING 04: minimum elevation drop used for Conduit CN28_S297
  WARNING 04: minimum elevation drop used for Conduit CN28_S298
  WARNING 04: minimum elevation drop used for Conduit CN28_S299
  WARNING 04: minimum elevation drop used for Conduit CN28_S301
  WARNING 04: minimum elevation drop used for Conduit CN28_S302
  WARNING 04: minimum elevation drop used for Conduit CN28_S304
  WARNING 04: minimum elevation drop used for Conduit CN28_S305
  WARNING 04: minimum elevation drop used for Conduit CN28_S306
  WARNING 04: minimum elevation drop used for Conduit CN28_S307
  WARNING 04: minimum elevation drop used for Conduit CN28_S308
  WARNING 04: minimum elevation drop used for Conduit CN28_S309
  WARNING 04: minimum elevation drop used for Conduit CN28_S310
  WARNING 04: minimum elevation drop used for Conduit CN28_S312
  WARNING 04: minimum elevation drop used for Conduit CN28_S313
  WARNING 04: minimum elevation drop used for Conduit CN28_S314
  WARNING 04: minimum elevation drop used for Conduit CN28_S315
  WARNING 04: minimum elevation drop used for Conduit CN28_S316
  WARNING 04: minimum elevation drop used for Conduit CN28_S319
  WARNING 04: minimum elevation drop used for Conduit CN28_S320
  WARNING 04: minimum elevation drop used for Conduit CN28_S321
  WARNING 04: minimum elevation drop used for Conduit CN28_S322
  WARNING 04: minimum elevation drop used for Conduit CN28_S323
  WARNING 04: minimum elevation drop used for Conduit CN28_S324
  WARNING 04: minimum elevation drop used for Conduit CN28_S325
  WARNING 04: minimum elevation drop used for Conduit CN28_S327
  WARNING 04: minimum elevation drop used for Conduit CN28_S328
  WARNING 04: minimum elevation drop used for Conduit CN28_S329
  WARNING 04: minimum elevation drop used for Conduit CN28_S330
  WARNING 04: minimum elevation drop used for Conduit CN28_S331
  WARNING 04: minimum elevation drop used for Conduit CN28_S332
  WARNING 04: minimum elevation drop used for Conduit CN28_S333
  WARNING 04: minimum elevation drop used for Conduit CN28_S334
  WARNING 04: minimum elevation drop used for Conduit CN28_S335
  WARNING 04: minimum elevation drop used for Conduit CN28_S336
  WARNING 04: minimum elevation drop used for Conduit CN28_S337
  WARNING 04: minimum elevation drop used for Conduit CN28_S338
  WARNING 04: minimum elevation drop used for Conduit CN28_S339
  WARNING 04: minimum elevation drop used for Conduit CN28_S340
  WARNING 04: minimum elevation drop used for Conduit CN28_S341
  WARNING 04: minimum elevation drop used for Conduit CN28_S342
  WARNING 04: minimum elevation drop used for Conduit CN28_S343
  WARNING 04: minimum elevation drop used for Conduit CN28_S344
  WARNING 04: minimum elevation drop used for Conduit CN28_S346
  WARNING 04: minimum elevation drop used for Conduit CN28_S347
  WARNING 04: minimum elevation drop used for Conduit CN28_S348
  WARNING 04: minimum elevation drop used for Conduit CN28_S349
  WARNING 04: minimum elevation drop used for Conduit CN28_S350
  WARNING 04: minimum elevation drop used for Conduit CN28_S351
  WARNING 04: minimum elevation drop used for Conduit CN28_S352
  WARNING 04: minimum elevation drop used for Conduit CN28_S353
  WARNING 04: minimum elevation drop used for Conduit CN28_S354
  WARNING 04: minimum elevation drop used for Conduit CN28_S356
  WARNING 04: minimum elevation drop used for Conduit CN28_S357
  WARNING 04: minimum elevation drop used for Conduit CN28_S358
  WARNING 04: minimum elevation drop used for Conduit CN28_S359
  WARNING 04: minimum elevation drop used for Conduit CN28_S360
  WARNING 04: minimum elevation drop used for Conduit CN28_S361
  WARNING 04: minimum elevation drop used for Conduit CN28_S362
  WARNING 04: minimum elevation drop used for Conduit CN28_S363
  WARNING 04: minimum elevation drop used for Conduit CN28_S364
  WARNING 04: minimum elevation drop used for Conduit CN28_S365
  WARNING 04: minimum elevation drop used for Conduit CN28_S366
  WARNING 04: minimum elevation drop used for Conduit CN28_S367
  WARNING 04: minimum elevation drop used for Conduit CN28_S368
  WARNING 04: minimum elevation drop used for Conduit CN28_S369
  WARNING 04: minimum elevation drop used for Conduit CN28_S370
  WARNING 04: minimum elevation drop used for Conduit CN28_S371
  WARNING 04: minimum elevation drop used for Conduit CN28_S373
  WARNING 04: minimum elevation drop used for Conduit CN28_S374
  WARNING 04: minimum elevation drop used for Conduit CN28_S375
  WARNING 04: minimum elevation drop used for Conduit CN28_S377
  WARNING 04: minimum elevation drop used for Conduit CN28_S378
  WARNING 04: minimum elevation drop used for Conduit CN28_S380
  WARNING 04: minimum elevation drop used for Conduit CN28_S381
  WARNING 04: minimum elevation drop used for Conduit CN28_S382
  WARNING 04: minimum elevation drop used for Conduit CN28_S384
  WARNING 04: minimum elevation drop used for Conduit CN28_S385
  WARNING 04: minimum elevation drop used for Conduit CN28_S386
  WARNING 04: minimum elevation drop used for Conduit CN28_S387
  WARNING 04: minimum elevation drop used for Conduit CN28_S388
  WARNING 04: minimum elevation drop used for Conduit CN28_S389
  WARNING 04: minimum elevation drop used for Conduit CN28_S390
  WARNING 04: minimum elevation drop used for Conduit CN28_S392
  WARNING 04: minimum elevation drop used for Conduit CN28_S393
  WARNING 04: minimum elevation drop used for Conduit CN28_S394
  WARNING 04: minimum elevation drop used for Conduit CN28_S395
  WARNING 04: minimum elevation drop used for Conduit CN28_S396
  WARNING 04: minimum elevation drop used for Conduit CN28_S397
  WARNING 04: minimum elevation drop used for Conduit CN28_S398
  WARNING 04: minimum elevation drop used for Conduit CN28_S399
  WARNING 04: minimum elevation drop used for Conduit CN28_S400
  WARNING 04: minimum elevation drop used for Conduit CN28_S401
  WARNING 04: minimum elevation drop used for Conduit CN28_S402
  WARNING 04: minimum elevation drop used for Conduit CN28_S403
  WARNING 04: minimum elevation drop used for Conduit CN28_S405
  WARNING 04: minimum elevation drop used for Conduit CN28_S406
  WARNING 04: minimum elevation drop used for Conduit CN28_S408
  WARNING 04: minimum elevation drop used for Conduit CN28_S409
  WARNING 04: minimum elevation drop used for Conduit CN28_S410
  WARNING 04: minimum elevation drop used for Conduit CN28_S411
  WARNING 04: minimum elevation drop used for Conduit CN28_S412
  WARNING 04: minimum elevation drop used for Conduit CN28_S413
  WARNING 04: minimum elevation drop used for Conduit CN28_S414
  WARNING 04: minimum elevation drop used for Conduit CN28_S415
  WARNING 04: minimum elevation drop used for Conduit CN28_S416
  WARNING 04: minimum elevation drop used for Conduit CN28_S417
  WARNING 04: minimum elevation drop used for Conduit CN28_S418
  WARNING 04: minimum elevation drop used for Conduit CN28_S419
  WARNING 04: minimum elevation drop used for Conduit CN28_S420
  WARNING 04: minimum elevation drop used for Conduit CN28_S421
  WARNING 04: minimum elevation drop used for Conduit CN28_S422
  WARNING 04: minimum elevation drop used for Conduit CN28_S424
  WARNING 04: minimum elevation drop used for Conduit CN28_S426
  WARNING 04: minimum elevation drop used for Conduit CN28_S427
  WARNING 04: minimum elevation drop used for Conduit CN28_S429
  WARNING 04: minimum elevation drop used for Conduit CN28_S430
  WARNING 04: minimum elevation drop used for Conduit CN28_S431
  WARNING 04: minimum elevation drop used for Conduit CN28_S432
  WARNING 04: minimum elevation drop used for Conduit CN28_S434
  WARNING 04: minimum elevation drop used for Conduit CN28_S435
  WARNING 04: minimum elevation drop used for Conduit CN28_S436
  WARNING 04: minimum elevation drop used for Conduit CN28_S437
  WARNING 04: minimum elevation drop used for Conduit CN28_S438
  WARNING 04: minimum elevation drop used for Conduit CN28_S439
  WARNING 04: minimum elevation drop used for Conduit CN28_S440
  WARNING 04: minimum elevation drop used for Conduit CN28_S441
  WARNING 04: minimum elevation drop used for Conduit CN28_S443
  WARNING 04: minimum elevation drop used for Conduit CN28_S444
  WARNING 04: minimum elevation drop used for Conduit CN28_S445
  WARNING 04: minimum elevation drop used for Conduit CN28_S446
  WARNING 04: minimum elevation drop used for Conduit CN28_S447
  WARNING 04: minimum elevation drop used for Conduit CN28_S448
  WARNING 04: minimum elevation drop used for Conduit CN28_S449
  WARNING 04: minimum elevation drop used for Conduit CN28_S450
  WARNING 04: minimum elevation drop used for Conduit CN28_S451
  WARNING 04: minimum elevation drop used for Conduit CN28_S453
  WARNING 04: minimum elevation drop used for Conduit CN28_S454
  WARNING 04: minimum elevation drop used for Conduit CN28_S455
  WARNING 04: minimum elevation drop used for Conduit CN28_S456
  WARNING 04: minimum elevation drop used for Conduit CN28_S457
  WARNING 04: minimum elevation drop used for Conduit CN28_S458
  WARNING 04: minimum elevation drop used for Conduit CN28_S460
  WARNING 04: minimum elevation drop used for Conduit CN28_S461
  WARNING 04: minimum elevation drop used for Conduit CN28_S462
  WARNING 04: minimum elevation drop used for Conduit CN28_S463
  WARNING 04: minimum elevation drop used for Conduit CN28_S464
  WARNING 04: minimum elevation drop used for Conduit CN28_S465
  WARNING 04: minimum elevation drop used for Conduit CN28_S466
  WARNING 04: minimum elevation drop used for Conduit CN28_S467
  WARNING 04: minimum elevation drop used for Conduit CN28_S468
  WARNING 04: minimum elevation drop used for Conduit CN28_S469
  WARNING 04: minimum elevation drop used for Conduit CN28_S470
  WARNING 04: minimum elevation drop used for Conduit CN28_S471
  WARNING 04: minimum elevation drop used for Conduit CN28_S472
  WARNING 04: minimum elevation drop used for Conduit CN28_S474
  WARNING 04: minimum elevation drop used for Conduit CN28_S475
  WARNING 04: minimum elevation drop used for Conduit CN28_S476
  WARNING 04: minimum elevation drop used for Conduit CN28_S477
  WARNING 04: minimum elevation drop used for Conduit CN28_S478
  WARNING 04: minimum elevation drop used for Conduit CN28_S479
  WARNING 04: minimum elevation drop used for Conduit CN28_S480
  WARNING 04: minimum elevation drop used for Conduit CN28_S481
  WARNING 04: minimum elevation drop used for Conduit CN28_S482
  WARNING 04: minimum elevation drop used for Conduit CN28_S483
  WARNING 04: minimum elevation drop used for Conduit CN28_S485
  WARNING 04: minimum elevation drop used for Conduit CN28_S486
  WARNING 04: minimum elevation drop used for Conduit CN28_S487
  WARNING 04: minimum elevation drop used for Conduit CN28_S488
  WARNING 04: minimum elevation drop used for Conduit CN28_S489
  WARNING 04: minimum elevation drop used for Conduit CN28_S491
  WARNING 04: minimum elevation drop used for Conduit CN28_S492
  WARNING 04: minimum elevation drop used for Conduit CN28_S493
  WARNING 04: minimum elevation drop used for Conduit CN28_S494
  WARNING 04: minimum elevation drop used for Conduit CN28_S495
  WARNING 04: minimum elevation drop used for Conduit CN28_S496
  WARNING 04: minimum elevation drop used for Conduit CN28_S497
  WARNING 04: minimum elevation drop used for Conduit CN28_S499
  WARNING 04: minimum elevation drop used for Conduit CN28_S500
  WARNING 04: minimum elevation drop used for Conduit CN28_S501
  WARNING 04: minimum elevation drop used for Conduit CN28_S502
  WARNING 04: minimum elevation drop used for Conduit CN28_S503
  WARNING 04: minimum elevation drop used for Conduit CN28_S504
  WARNING 04: minimum elevation drop used for Conduit CN28_S505
  WARNING 04: minimum elevation drop used for Conduit CN28_S507
  WARNING 04: minimum elevation drop used for Conduit CN28_S508
  WARNING 04: minimum elevation drop used for Conduit CN28_S509
  WARNING 04: minimum elevation drop used for Conduit CN28_S510
  WARNING 04: minimum elevation drop used for Conduit CN28_S513
  WARNING 04: minimum elevation drop used for Conduit CN28_S514
  WARNING 04: minimum elevation drop used for Conduit CN28_S515
  WARNING 04: minimum elevation drop used for Conduit CN28_S516
  WARNING 04: minimum elevation drop used for Conduit CN28_S517
  WARNING 04: minimum elevation drop used for Conduit CN28_S518
  WARNING 04: minimum elevation drop used for Conduit CN28_S519
  WARNING 04: minimum elevation drop used for Conduit CN28_S520
  WARNING 04: minimum elevation drop used for Conduit CN28_S521
  WARNING 04: minimum elevation drop used for Conduit CN28_S523
  WARNING 04: minimum elevation drop used for Conduit CN28_S524
  WARNING 04: minimum elevation drop used for Conduit CN28_S525
  WARNING 04: minimum elevation drop used for Conduit CN28_S526
  WARNING 04: minimum elevation drop used for Conduit CN28_S527
  WARNING 04: minimum elevation drop used for Conduit CN28_S528
  WARNING 04: minimum elevation drop used for Conduit CN28_S529
  WARNING 04: minimum elevation drop used for Conduit CN29_S0
  WARNING 04: minimum elevation drop used for Conduit CN30_S1
  WARNING 04: minimum elevation drop used for Conduit CN30_S2
  WARNING 04: minimum elevation drop used for Conduit CN30_S5
  WARNING 04: minimum elevation drop used for Conduit CN30_S8
  WARNING 04: minimum elevation drop used for Conduit CN31_S1
  WARNING 04: minimum elevation drop used for Conduit CN31_S3
  WARNING 04: minimum elevation drop used for Conduit CN31_S4
  WARNING 04: minimum elevation drop used for Conduit CN31_S6
  WARNING 04: minimum elevation drop used for Conduit CN31_S7
  WARNING 04: minimum elevation drop used for Conduit CN31_S8
  WARNING 04: minimum elevation drop used for Conduit CN31_S9
  WARNING 04: minimum elevation drop used for Conduit CN31_S10
  WARNING 04: minimum elevation drop used for Conduit CN31_S11
  WARNING 04: minimum elevation drop used for Conduit CN31_S12
  WARNING 04: minimum elevation drop used for Conduit CN31_S13
  WARNING 04: minimum elevation drop used for Conduit CN32_S0
  WARNING 04: minimum elevation drop used for Conduit CN32_S1
  WARNING 04: minimum elevation drop used for Conduit CN32_S2
  WARNING 04: minimum elevation drop used for Conduit CN32_S3
  WARNING 04: minimum elevation drop used for Conduit CN32_S5
  WARNING 04: minimum elevation drop used for Conduit CN32_S6
  WARNING 04: minimum elevation drop used for Conduit CN32_S7
  WARNING 04: minimum elevation drop used for Conduit CN32_S8
  WARNING 04: minimum elevation drop used for Conduit CN32_S9
  WARNING 04: minimum elevation drop used for Conduit CN32_S10
  WARNING 04: minimum elevation drop used for Conduit CN32_S12
  WARNING 04: minimum elevation drop used for Conduit CN33_S0
  WARNING 04: minimum elevation drop used for Conduit CN34_S0
  WARNING 04: minimum elevation drop used for Conduit CN34_S1_0
  WARNING 04: minimum elevation drop used for Conduit CN35_S0
  WARNING 04: minimum elevation drop used for Conduit CN35_S3
  WARNING 04: minimum elevation drop used for Conduit CN35_S5
  WARNING 04: minimum elevation drop used for Conduit CN36_S0
  WARNING 04: minimum elevation drop used for Conduit CN37_S1
  WARNING 04: minimum elevation drop used for Conduit CN40_S0
  WARNING 04: minimum elevation drop used for Conduit CN40_S1
  WARNING 04: minimum elevation drop used for Conduit CN40_S3
  WARNING 04: minimum elevation drop used for Conduit CN41_S0
  WARNING 04: minimum elevation drop used for Conduit CN41_S1
  WARNING 04: minimum elevation drop used for Conduit CN41_S3
  WARNING 04: minimum elevation drop used for Conduit CN41_S4
  WARNING 04: minimum elevation drop used for Conduit CN41_S5
  WARNING 04: minimum elevation drop used for Conduit CN41_S6
  WARNING 04: minimum elevation drop used for Conduit CN41_S7
  WARNING 04: minimum elevation drop used for Conduit CN41_S9
  WARNING 04: minimum elevation drop used for Conduit CN41_S10
  WARNING 04: minimum elevation drop used for Conduit CN43_S0
  WARNING 04: minimum elevation drop used for Conduit CN44_S0
  WARNING 04: minimum elevation drop used for Conduit CN44_S1
  WARNING 04: minimum elevation drop used for Conduit CN44_S3
  WARNING 04: minimum elevation drop used for Conduit CN44_S4
  WARNING 04: minimum elevation drop used for Conduit CN44_S5
  WARNING 04: minimum elevation drop used for Conduit CN44_S6
  WARNING 04: minimum elevation drop used for Conduit CN44_S7
  WARNING 04: minimum elevation drop used for Conduit CN44_S8
  WARNING 04: minimum elevation drop used for Conduit CN44_S9
  WARNING 04: minimum elevation drop used for Conduit CN44_S10
  WARNING 04: minimum elevation drop used for Conduit CN44_S11
  WARNING 04: minimum elevation drop used for Conduit CN44_S12
  WARNING 04: minimum elevation drop used for Conduit CN44_S14
  WARNING 04: minimum elevation drop used for Conduit CN44_S15
  WARNING 04: minimum elevation drop used for Conduit CN44_S16
  WARNING 04: minimum elevation drop used for Conduit CN44_S17
  WARNING 04: minimum elevation drop used for Conduit CN44_S18
  WARNING 04: minimum elevation drop used for Conduit CN44_S19
  WARNING 04: minimum elevation drop used for Conduit CN44_S22
  WARNING 04: minimum elevation drop used for Conduit CN44_S23
  WARNING 04: minimum elevation drop used for Conduit CN44_S24
  WARNING 04: minimum elevation drop used for Conduit CN45_S0
  WARNING 04: minimum elevation drop used for Conduit CN45_S1
  WARNING 04: minimum elevation drop used for Conduit CN45_S2
  WARNING 04: minimum elevation drop used for Conduit CN45_S3
  WARNING 04: minimum elevation drop used for Conduit CN45_S4
  WARNING 04: minimum elevation drop used for Conduit CN45_S5
  WARNING 04: minimum elevation drop used for Conduit CN45_S6
  WARNING 04: minimum elevation drop used for Conduit CN45_S7
  WARNING 04: minimum elevation drop used for Conduit CN45_S8
  WARNING 04: minimum elevation drop used for Conduit CN45_S9
  WARNING 04: minimum elevation drop used for Conduit CN45_S10
  WARNING 04: minimum elevation drop used for Conduit CN45_S11
  WARNING 04: minimum elevation drop used for Conduit CN45_S12
  WARNING 04: minimum elevation drop used for Conduit CN45_S13
  WARNING 04: minimum elevation drop used for Conduit CN45_S14
  WARNING 04: minimum elevation drop used for Conduit CN45_S16
  WARNING 04: minimum elevation drop used for Conduit CN45_S17
  WARNING 04: minimum elevation drop used for Conduit CN45_S18
  WARNING 04: minimum elevation drop used for Conduit CN45_S19_0
  WARNING 04: minimum elevation drop used for Conduit CN45_S19_1
  WARNING 04: minimum elevation drop used for Conduit CN45_S21
  WARNING 04: minimum elevation drop used for Conduit CN45_S22
  WARNING 04: minimum elevation drop used for Conduit CN45_S23
  WARNING 04: minimum elevation drop used for Conduit CN45_S24
  WARNING 04: minimum elevation drop used for Conduit CN46_S0
  WARNING 04: minimum elevation drop used for Conduit CN46_S1
  WARNING 04: minimum elevation drop used for Conduit CN46_S2
  WARNING 04: minimum elevation drop used for Conduit CN46_S3
  WARNING 04: minimum elevation drop used for Conduit CN46_S5
  WARNING 04: minimum elevation drop used for Conduit CN46_S6
  WARNING 04: minimum elevation drop used for Conduit CN46_S7
  WARNING 04: minimum elevation drop used for Conduit CN46_S8
  WARNING 04: minimum elevation drop used for Conduit CN46_S9
  WARNING 04: minimum elevation drop used for Conduit CN46_S10
  WARNING 04: minimum elevation drop used for Conduit CN46_S11
  WARNING 04: minimum elevation drop used for Conduit CN46_S12
  WARNING 04: minimum elevation drop used for Conduit CN46_S13
  WARNING 04: minimum elevation drop used for Conduit CN46_S14
  WARNING 04: minimum elevation drop used for Conduit CN46_S15
  WARNING 04: minimum elevation drop used for Conduit CN46_S16
  WARNING 04: minimum elevation drop used for Conduit CN47_S0
  WARNING 04: minimum elevation drop used for Conduit CN49_S0
  WARNING 04: minimum elevation drop used for Conduit CN49_S1
  WARNING 04: minimum elevation drop used for Conduit CN49_S2
  WARNING 04: minimum elevation drop used for Conduit CN49_S3
  WARNING 04: minimum elevation drop used for Conduit CN49_S4
  WARNING 04: minimum elevation drop used for Conduit CN50_S0
  WARNING 04: minimum elevation drop used for Conduit CN50_S1
  WARNING 04: minimum elevation drop used for Conduit CN50_S2
  WARNING 04: minimum elevation drop used for Conduit CN50_S3
  WARNING 04: minimum elevation drop used for Conduit CN50_S4
  WARNING 04: minimum elevation drop used for Conduit CN50_S5
  WARNING 04: minimum elevation drop used for Conduit CN50_S6
  WARNING 04: minimum elevation drop used for Conduit CN50_S7
  WARNING 04: minimum elevation drop used for Conduit CN50_S8
  WARNING 04: minimum elevation drop used for Conduit CN50_S9
  WARNING 04: minimum elevation drop used for Conduit CN50_S10
  WARNING 04: minimum elevation drop used for Conduit CN50_S11
  WARNING 04: minimum elevation drop used for Conduit CN51_S0
  WARNING 04: minimum elevation drop used for Conduit CN51_S1
  WARNING 04: minimum elevation drop used for Conduit CN51_S2
  WARNING 04: minimum elevation drop used for Conduit CN51_S3
  WARNING 04: minimum elevation drop used for Conduit CN51_S4
  WARNING 04: minimum elevation drop used for Conduit CN51_S5
  WARNING 04: minimum elevation drop used for Conduit CN51_S6
  WARNING 04: minimum elevation drop used for Conduit CN51_S8
  WARNING 04: minimum elevation drop used for Conduit CN51_S9
  WARNING 04: minimum elevation drop used for Conduit CN51_S10
  WARNING 04: minimum elevation drop used for Conduit CN51_S11
  WARNING 04: minimum elevation drop used for Conduit CN51_S12
  WARNING 04: minimum elevation drop used for Conduit CN51_S13
  WARNING 04: minimum elevation drop used for Conduit CN51_S14
  WARNING 04: minimum elevation drop used for Conduit CN51_S15
  WARNING 04: minimum elevation drop used for Conduit CN51_S17
  WARNING 04: minimum elevation drop used for Conduit CN52_S1_0
  WARNING 04: minimum elevation drop used for Conduit CN52_S1_1
  WARNING 04: minimum elevation drop used for Conduit CN52_S2
  WARNING 04: minimum elevation drop used for Conduit CN52_S3
  WARNING 04: minimum elevation drop used for Conduit CN52_S4
  WARNING 04: minimum elevation drop used for Conduit CN52_S5
  WARNING 04: minimum elevation drop used for Conduit CN52_S6
  WARNING 04: minimum elevation drop used for Conduit CN52_S7
  WARNING 04: minimum elevation drop used for Conduit CN52_S9
  WARNING 04: minimum elevation drop used for Conduit CN52_S10
  WARNING 04: minimum elevation drop used for Conduit CN53_S1
  WARNING 04: minimum elevation drop used for Conduit CN53_S2
  WARNING 04: minimum elevation drop used for Conduit CN53_S3
  WARNING 04: minimum elevation drop used for Conduit CN53_S5
  WARNING 04: minimum elevation drop used for Conduit CN53_S6
  WARNING 04: minimum elevation drop used for Conduit CN53_S7
  WARNING 04: minimum elevation drop used for Conduit CN53_S9
  WARNING 04: minimum elevation drop used for Conduit CN53_S10
  WARNING 04: minimum elevation drop used for Conduit CN54_S0
  WARNING 04: minimum elevation drop used for Conduit CN54_S2
  WARNING 04: minimum elevation drop used for Conduit CN54_S3
  WARNING 04: minimum elevation drop used for Conduit CN54_S4
  WARNING 04: minimum elevation drop used for Conduit CN54_S5
  WARNING 04: minimum elevation drop used for Conduit CN54_S6
  WARNING 04: minimum elevation drop used for Conduit CN54_S7
  WARNING 04: minimum elevation drop used for Conduit CN54_S8
  WARNING 04: minimum elevation drop used for Conduit CN54_S11
  WARNING 04: minimum elevation drop used for Conduit CN54_S12
  WARNING 04: minimum elevation drop used for Conduit CN54_S13
  WARNING 04: minimum elevation drop used for Conduit CN54_S14
  WARNING 04: minimum elevation drop used for Conduit CN54_S15
  WARNING 04: minimum elevation drop used for Conduit CN54_S16
  WARNING 04: minimum elevation drop used for Conduit CN54_S17
  WARNING 04: minimum elevation drop used for Conduit CN54_S18
  WARNING 04: minimum elevation drop used for Conduit CN54_S20
  WARNING 04: minimum elevation drop used for Conduit CN54_S23
  WARNING 04: minimum elevation drop used for Conduit CN54_S24
  WARNING 04: minimum elevation drop used for Conduit CN54_S26
  WARNING 04: minimum elevation drop used for Conduit CN54_S27
  WARNING 04: minimum elevation drop used for Conduit CN54_S28
  WARNING 04: minimum elevation drop used for Conduit CN54_S29
  WARNING 04: minimum elevation drop used for Conduit CN54_S31
  WARNING 04: minimum elevation drop used for Conduit CN54_S32
  WARNING 04: minimum elevation drop used for Conduit CN55_S1
  WARNING 04: minimum elevation drop used for Conduit CN55_S2
  WARNING 04: minimum elevation drop used for Conduit CN55_S3
  WARNING 04: minimum elevation drop used for Conduit CN55_S4
  WARNING 04: minimum elevation drop used for Conduit CN55_S5
  WARNING 04: minimum elevation drop used for Conduit CN55_S6
  WARNING 04: minimum elevation drop used for Conduit CN55_S7
  WARNING 04: minimum elevation drop used for Conduit CN55_S8
  WARNING 04: minimum elevation drop used for Conduit CN55_S9
  WARNING 04: minimum elevation drop used for Conduit CN55_S10
  WARNING 04: minimum elevation drop used for Conduit CN55_S11
  WARNING 04: minimum elevation drop used for Conduit CN55_S12
  WARNING 04: minimum elevation drop used for Conduit CN55_S13
  WARNING 04: minimum elevation drop used for Conduit CN55_S14
  WARNING 04: minimum elevation drop used for Conduit CN55_S16
  WARNING 04: minimum elevation drop used for Conduit CN55_S17
  WARNING 04: minimum elevation drop used for Conduit CN55_S18
  WARNING 04: minimum elevation drop used for Conduit CN55_S19
  WARNING 04: minimum elevation drop used for Conduit CN55_S20
  WARNING 04: minimum elevation drop used for Conduit CN55_S21
  WARNING 04: minimum elevation drop used for Conduit CN55_S22
  WARNING 04: minimum elevation drop used for Conduit CN55_S23
  WARNING 04: minimum elevation drop used for Conduit CN55_S24
  WARNING 04: minimum elevation drop used for Conduit CN55_S25
  WARNING 04: minimum elevation drop used for Conduit CN55_S26
  WARNING 04: minimum elevation drop used for Conduit CN55_S27
  WARNING 04: minimum elevation drop used for Conduit CN55_S28
  WARNING 04: minimum elevation drop used for Conduit CN55_S29
  WARNING 04: minimum elevation drop used for Conduit CN55_S30
  WARNING 04: minimum elevation drop used for Conduit CN55_S31
  WARNING 04: minimum elevation drop used for Conduit CN55_S32
  WARNING 04: minimum elevation drop used for Conduit CN55_S33
  WARNING 04: minimum elevation drop used for Conduit CN55_S34
  WARNING 04: minimum elevation drop used for Conduit CN55_S35
  WARNING 04: minimum elevation drop used for Conduit CN55_S36
  WARNING 04: minimum elevation drop used for Conduit CN55_S37
  WARNING 04: minimum elevation drop used for Conduit CN55_S38
  WARNING 04: minimum elevation drop used for Conduit CN55_S39
  WARNING 04: minimum elevation drop used for Conduit CN55_S40
  WARNING 04: minimum elevation drop used for Conduit CN55_S41
  WARNING 04: minimum elevation drop used for Conduit CN55_S43
  WARNING 04: minimum elevation drop used for Conduit CN55_S44
  WARNING 04: minimum elevation drop used for Conduit CN55_S45
  WARNING 04: minimum elevation drop used for Conduit CN55_S46
  WARNING 04: minimum elevation drop used for Conduit CN55_S47
  WARNING 04: minimum elevation drop used for Conduit CN55_S48
  WARNING 04: minimum elevation drop used for Conduit CN55_S49
  WARNING 04: minimum elevation drop used for Conduit CN55_S50
  WARNING 04: minimum elevation drop used for Conduit CN55_S51
  WARNING 04: minimum elevation drop used for Conduit CN55_S52
  WARNING 04: minimum elevation drop used for Conduit CN55_S54
  WARNING 04: minimum elevation drop used for Conduit CN55_S55
  WARNING 04: minimum elevation drop used for Conduit CN55_S56
  WARNING 04: minimum elevation drop used for Conduit CN55_S57
  WARNING 04: minimum elevation drop used for Conduit CN55_S58
  WARNING 04: minimum elevation drop used for Conduit CN55_S59
  WARNING 04: minimum elevation drop used for Conduit CN55_S60
  WARNING 04: minimum elevation drop used for Conduit CN55_S61
  WARNING 04: minimum elevation drop used for Conduit CN55_S62
  WARNING 04: minimum elevation drop used for Conduit CN55_S63
  WARNING 04: minimum elevation drop used for Conduit CN55_S64
  WARNING 04: minimum elevation drop used for Conduit CN55_S66
  WARNING 04: minimum elevation drop used for Conduit CN55_S67
  WARNING 04: minimum elevation drop used for Conduit CN55_S68
  WARNING 04: minimum elevation drop used for Conduit CN55_S69
  WARNING 04: minimum elevation drop used for Conduit CN55_S70
  WARNING 04: minimum elevation drop used for Conduit CN55_S71
  WARNING 04: minimum elevation drop used for Conduit CN55_S72
  WARNING 04: minimum elevation drop used for Conduit CN55_S73
  WARNING 04: minimum elevation drop used for Conduit CN55_S75
  WARNING 04: minimum elevation drop used for Conduit CN55_S76
  WARNING 04: minimum elevation drop used for Conduit CN55_S78
  WARNING 04: minimum elevation drop used for Conduit CN56_S0
  WARNING 04: minimum elevation drop used for Conduit CN56_S1
  WARNING 04: minimum elevation drop used for Conduit CN56_S2
  WARNING 04: minimum elevation drop used for Conduit CN56_S4
  WARNING 04: minimum elevation drop used for Conduit CN56_S5
  WARNING 04: minimum elevation drop used for Conduit CN56_S6
  WARNING 04: minimum elevation drop used for Conduit CN56_S7
  WARNING 04: minimum elevation drop used for Conduit CN56_S8
  WARNING 04: minimum elevation drop used for Conduit CN56_S9
  WARNING 04: minimum elevation drop used for Conduit CN56_S10
  WARNING 04: minimum elevation drop used for Conduit CN56_S12
  WARNING 04: minimum elevation drop used for Conduit CN56_S13
  WARNING 04: minimum elevation drop used for Conduit CN56_S14
  WARNING 04: minimum elevation drop used for Conduit CN56_S15
  WARNING 04: minimum elevation drop used for Conduit CN56_S16
  WARNING 04: minimum elevation drop used for Conduit CN56_S17
  WARNING 04: minimum elevation drop used for Conduit CN57_S0_0
  WARNING 04: minimum elevation drop used for Conduit CN57_S0_1
  WARNING 04: minimum elevation drop used for Conduit CN57_S3
  WARNING 04: minimum elevation drop used for Conduit CN57_S4
  WARNING 08: elevation drop exceeds length for Conduit CN58_S0
  WARNING 04: minimum elevation drop used for Conduit CN58_S1
  WARNING 04: minimum elevation drop used for Conduit CN58_S2
  WARNING 04: minimum elevation drop used for Conduit CN58_S3
  WARNING 04: minimum elevation drop used for Conduit CN58_S4
  WARNING 04: minimum elevation drop used for Conduit CN58_S5
  WARNING 04: minimum elevation drop used for Conduit CN58_S6
  WARNING 04: minimum elevation drop used for Conduit CN58_S8
  WARNING 04: minimum elevation drop used for Conduit CN58_S9
  WARNING 04: minimum elevation drop used for Conduit CN58_S11
  WARNING 04: minimum elevation drop used for Conduit CN58_S12
  WARNING 04: minimum elevation drop used for Conduit CN58_S13
  WARNING 04: minimum elevation drop used for Conduit CN58_S14
  WARNING 04: minimum elevation drop used for Conduit CN58_S15
  WARNING 04: minimum elevation drop used for Conduit CN58_S16
  WARNING 04: minimum elevation drop used for Conduit CN58_S18
  WARNING 04: minimum elevation drop used for Conduit CN58_S19
  WARNING 04: minimum elevation drop used for Conduit CN58_S20
  WARNING 04: minimum elevation drop used for Conduit CN58_S22
  WARNING 04: minimum elevation drop used for Conduit CN58_S23
  WARNING 04: minimum elevation drop used for Conduit CN58_S24
  WARNING 04: minimum elevation drop used for Conduit CN58_S26
  WARNING 04: minimum elevation drop used for Conduit CN58_S27
  WARNING 04: minimum elevation drop used for Conduit CN58_S30
  WARNING 04: minimum elevation drop used for Conduit CN58_S31
  WARNING 04: minimum elevation drop used for Conduit CN58_S33
  WARNING 04: minimum elevation drop used for Conduit CN58_S34
  WARNING 04: minimum elevation drop used for Conduit CN58_S35
  WARNING 04: minimum elevation drop used for Conduit CN58_S36
  WARNING 04: minimum elevation drop used for Conduit CN58_S37
  WARNING 04: minimum elevation drop used for Conduit CN58_S38
  WARNING 04: minimum elevation drop used for Conduit CN58_S39
  WARNING 04: minimum elevation drop used for Conduit CN58_S40
  WARNING 04: minimum elevation drop used for Conduit CN58_S41
  WARNING 04: minimum elevation drop used for Conduit CN58_S42
  WARNING 04: minimum elevation drop used for Conduit CN59_S0
  WARNING 04: minimum elevation drop used for Conduit CN59_S1
  WARNING 04: minimum elevation drop used for Conduit CN59_S3
  WARNING 04: minimum elevation drop used for Conduit CN59_S4
  WARNING 04: minimum elevation drop used for Conduit CN59_S5
  WARNING 04: minimum elevation drop used for Conduit CN59_S6
  WARNING 04: minimum elevation drop used for Conduit CN59_S7
  WARNING 04: minimum elevation drop used for Conduit CN59_S8
  WARNING 04: minimum elevation drop used for Conduit CN59_S9
  WARNING 04: minimum elevation drop used for Conduit CN59_S10
  WARNING 04: minimum elevation drop used for Conduit CN59_S11
  WARNING 04: minimum elevation drop used for Conduit CN59_S12
  WARNING 04: minimum elevation drop used for Conduit CN59_S13
  WARNING 04: minimum elevation drop used for Conduit CN59_S14
  WARNING 04: minimum elevation drop used for Conduit CN59_S16
  WARNING 04: minimum elevation drop used for Conduit CN59_S17
  WARNING 04: minimum elevation drop used for Conduit CN59_S18
  WARNING 04: minimum elevation drop used for Conduit CN59_S19
  WARNING 04: minimum elevation drop used for Conduit CN59_S20
  WARNING 04: minimum elevation drop used for Conduit CN59_S21
  WARNING 04: minimum elevation drop used for Conduit CN59_S22
  WARNING 04: minimum elevation drop used for Conduit CN59_S24
  WARNING 04: minimum elevation drop used for Conduit CN59_S25
  WARNING 04: minimum elevation drop used for Conduit CN59_S26
  WARNING 04: minimum elevation drop used for Conduit CN59_S27
  WARNING 04: minimum elevation drop used for Conduit CN59_S29
  WARNING 04: minimum elevation drop used for Conduit CN59_S30
  WARNING 04: minimum elevation drop used for Conduit CN59_S31
  WARNING 04: minimum elevation drop used for Conduit CN59_S32
  WARNING 04: minimum elevation drop used for Conduit CN59_S33
  WARNING 04: minimum elevation drop used for Conduit CN59_S35
  WARNING 04: minimum elevation drop used for Conduit CN59_S36
  WARNING 04: minimum elevation drop used for Conduit CN59_S37
  WARNING 04: minimum elevation drop used for Conduit CN59_S38
  WARNING 04: minimum elevation drop used for Conduit CN59_S41
  WARNING 04: minimum elevation drop used for Conduit CN59_S42
  WARNING 04: minimum elevation drop used for Conduit CN59_S43
  WARNING 04: minimum elevation drop used for Conduit CN59_S44
  WARNING 04: minimum elevation drop used for Conduit CN59_S45
  WARNING 04: minimum elevation drop used for Conduit CN59_S46
  WARNING 04: minimum elevation drop used for Conduit CN59_S47
  WARNING 04: minimum elevation drop used for Conduit CN59_S48
  WARNING 04: minimum elevation drop used for Conduit CN59_S49
  WARNING 04: minimum elevation drop used for Conduit CN59_S50
  WARNING 04: minimum elevation drop used for Conduit CN59_S51
  WARNING 04: minimum elevation drop used for Conduit CN59_S52
  WARNING 04: minimum elevation drop used for Conduit CN59_S53
  WARNING 04: minimum elevation drop used for Conduit CN59_S54
  WARNING 04: minimum elevation drop used for Conduit CN59_S56
  WARNING 04: minimum elevation drop used for Conduit CN59_S57
  WARNING 04: minimum elevation drop used for Conduit CN59_S58
  WARNING 04: minimum elevation drop used for Conduit CN59_S59
  WARNING 04: minimum elevation drop used for Conduit CN59_S60
  WARNING 04: minimum elevation drop used for Conduit CN59_S61
  WARNING 04: minimum elevation drop used for Conduit CN59_S62
  WARNING 04: minimum elevation drop used for Conduit CN59_S64
  WARNING 04: minimum elevation drop used for Conduit CN59_S65
  WARNING 04: minimum elevation drop used for Conduit CN60_S1
  WARNING 04: minimum elevation drop used for Conduit CN60_S3
  WARNING 04: minimum elevation drop used for Conduit CN60_S4
  WARNING 04: minimum elevation drop used for Conduit CN60_S5
  WARNING 04: minimum elevation drop used for Conduit CN60_S6
  WARNING 04: minimum elevation drop used for Conduit CN60_S7
  WARNING 04: minimum elevation drop used for Conduit CN60_S8
  WARNING 04: minimum elevation drop used for Conduit CN60_S10
  WARNING 04: minimum elevation drop used for Conduit CN60_S12
  WARNING 04: minimum elevation drop used for Conduit CN60_S13
  WARNING 04: minimum elevation drop used for Conduit CN60_S14
  WARNING 04: minimum elevation drop used for Conduit CN60_S16
  WARNING 04: minimum elevation drop used for Conduit CN60_S17
  WARNING 04: minimum elevation drop used for Conduit CN60_S18
  WARNING 04: minimum elevation drop used for Conduit CN60_S19
  WARNING 04: minimum elevation drop used for Conduit CN60_S20
  WARNING 04: minimum elevation drop used for Conduit CN60_S21
  WARNING 04: minimum elevation drop used for Conduit CN60_S22
  WARNING 04: minimum elevation drop used for Conduit CN60_S23
  WARNING 04: minimum elevation drop used for Conduit CN60_S24
  WARNING 04: minimum elevation drop used for Conduit CN60_S26
  WARNING 04: minimum elevation drop used for Conduit CN60_S27
  WARNING 04: minimum elevation drop used for Conduit CN60_S28
  WARNING 04: minimum elevation drop used for Conduit CN60_S29
  WARNING 04: minimum elevation drop used for Conduit CN60_S30
  WARNING 04: minimum elevation drop used for Conduit CN60_S32
  WARNING 04: minimum elevation drop used for Conduit CN60_S33
  WARNING 04: minimum elevation drop used for Conduit CN60_S34
  WARNING 04: minimum elevation drop used for Conduit CN60_S35
  WARNING 04: minimum elevation drop used for Conduit CN60_S36
  WARNING 04: minimum elevation drop used for Conduit CN60_S37
  WARNING 04: minimum elevation drop used for Conduit CN60_S38
  WARNING 04: minimum elevation drop used for Conduit CN60_S39
  WARNING 04: minimum elevation drop used for Conduit CN60_S41
  WARNING 04: minimum elevation drop used for Conduit CN60_S42
  WARNING 04: minimum elevation drop used for Conduit CN60_S44
  WARNING 04: minimum elevation drop used for Conduit CN60_S45
  WARNING 04: minimum elevation drop used for Conduit CN60_S46
  WARNING 04: minimum elevation drop used for Conduit CN60_S47
  WARNING 04: minimum elevation drop used for Conduit CN60_S48
  WARNING 04: minimum elevation drop used for Conduit CN60_S49
  WARNING 04: minimum elevation drop used for Conduit CN60_S51
  WARNING 04: minimum elevation drop used for Conduit CN60_S52
  WARNING 04: minimum elevation drop used for Conduit CN60_S53
  WARNING 04: minimum elevation drop used for Conduit CN60_S55
  WARNING 04: minimum elevation drop used for Conduit CN60_S56
  WARNING 04: minimum elevation drop used for Conduit CN60_S57
  WARNING 04: minimum elevation drop used for Conduit CN60_S58
  WARNING 04: minimum elevation drop used for Conduit CN60_S59
  WARNING 04: minimum elevation drop used for Conduit CN60_S60
  WARNING 04: minimum elevation drop used for Conduit CN60_S61
  WARNING 04: minimum elevation drop used for Conduit CN60_S62
  WARNING 04: minimum elevation drop used for Conduit CN60_S64
  WARNING 04: minimum elevation drop used for Conduit CN60_S65
  WARNING 04: minimum elevation drop used for Conduit CN60_S66
  WARNING 04: minimum elevation drop used for Conduit CN60_S67
  WARNING 04: minimum elevation drop used for Conduit CN60_S68
  WARNING 04: minimum elevation drop used for Conduit CN60_S70
  WARNING 04: minimum elevation drop used for Conduit CN60_S71
  WARNING 04: minimum elevation drop used for Conduit CN60_S73
  WARNING 04: minimum elevation drop used for Conduit CN60_S74
  WARNING 04: minimum elevation drop used for Conduit CN60_S75
  WARNING 04: minimum elevation drop used for Conduit CN60_S76
  WARNING 04: minimum elevation drop used for Conduit CN60_S77
  WARNING 04: minimum elevation drop used for Conduit CN60_S78
  WARNING 04: minimum elevation drop used for Conduit CN60_S79
  WARNING 04: minimum elevation drop used for Conduit CN60_S81
  WARNING 04: minimum elevation drop used for Conduit CN60_S82
  WARNING 04: minimum elevation drop used for Conduit CN60_S83
  WARNING 04: minimum elevation drop used for Conduit CN60_S84
  WARNING 04: minimum elevation drop used for Conduit CN60_S85
  WARNING 04: minimum elevation drop used for Conduit CN60_S86
  WARNING 04: minimum elevation drop used for Conduit CN60_S87
  WARNING 04: minimum elevation drop used for Conduit CN60_S88
  WARNING 04: minimum elevation drop used for Conduit CN60_S90
  WARNING 04: minimum elevation drop used for Conduit CN60_S91
  WARNING 04: minimum elevation drop used for Conduit CN60_S92
  WARNING 04: minimum elevation drop used for Conduit CN60_S93
  WARNING 04: minimum elevation drop used for Conduit CN60_S94
  WARNING 04: minimum elevation drop used for Conduit CN60_S95
  WARNING 04: minimum elevation drop used for Conduit CN60_S96
  WARNING 04: minimum elevation drop used for Conduit CN60_S97
  WARNING 04: minimum elevation drop used for Conduit CN60_S98
  WARNING 04: minimum elevation drop used for Conduit CN60_S99
  WARNING 04: minimum elevation drop used for Conduit CN60_S101
  WARNING 04: minimum elevation drop used for Conduit CN60_S102
  WARNING 04: minimum elevation drop used for Conduit CN60_S103
  WARNING 04: minimum elevation drop used for Conduit CN60_S104
  WARNING 04: minimum elevation drop used for Conduit CN60_S105
  WARNING 04: minimum elevation drop used for Conduit CN60_S106
  WARNING 04: minimum elevation drop used for Conduit CN60_S107
  WARNING 04: minimum elevation drop used for Conduit CN60_S109
  WARNING 04: minimum elevation drop used for Conduit CN60_S110
  WARNING 04: minimum elevation drop used for Conduit CN60_S112
  WARNING 04: minimum elevation drop used for Conduit CN60_S113
  WARNING 04: minimum elevation drop used for Conduit CN60_S114
  WARNING 04: minimum elevation drop used for Conduit CN60_S115
  WARNING 04: minimum elevation drop used for Conduit CN60_S116
  WARNING 04: minimum elevation drop used for Conduit CN60_S117
  WARNING 04: minimum elevation drop used for Conduit CN60_S118
  WARNING 04: minimum elevation drop used for Conduit CN60_S121
  WARNING 04: minimum elevation drop used for Conduit CN60_S122
  WARNING 04: minimum elevation drop used for Conduit CN60_S123
  WARNING 04: minimum elevation drop used for Conduit CN60_S124
  WARNING 04: minimum elevation drop used for Conduit CN60_S125
  WARNING 04: minimum elevation drop used for Conduit CN60_S126
  WARNING 04: minimum elevation drop used for Conduit CN60_S127
  WARNING 04: minimum elevation drop used for Conduit CN60_S128
  WARNING 04: minimum elevation drop used for Conduit CN60_S129
  WARNING 04: minimum elevation drop used for Conduit CN60_S130
  WARNING 04: minimum elevation drop used for Conduit CN60_S131
  WARNING 04: minimum elevation drop used for Conduit CN60_S133
  WARNING 04: minimum elevation drop used for Conduit CN60_S134
  WARNING 04: minimum elevation drop used for Conduit CN60_S135
  WARNING 04: minimum elevation drop used for Conduit CN60_S136
  WARNING 04: minimum elevation drop used for Conduit CN60_S137
  WARNING 04: minimum elevation drop used for Conduit CN60_S138
  WARNING 04: minimum elevation drop used for Conduit CN60_S139
  WARNING 04: minimum elevation drop used for Conduit CN61_S0
  WARNING 04: minimum elevation drop used for Conduit CN61_S1
  WARNING 04: minimum elevation drop used for Conduit CN61_S2
  WARNING 04: minimum elevation drop used for Conduit CN61_S3
  WARNING 04: minimum elevation drop used for Conduit CN61_S4
  WARNING 04: minimum elevation drop used for Conduit CN61_S5
  WARNING 04: minimum elevation drop used for Conduit CN61_S6
  WARNING 04: minimum elevation drop used for Conduit CN61_S7
  WARNING 04: minimum elevation drop used for Conduit CN61_S8
  WARNING 04: minimum elevation drop used for Conduit CN61_S9
  WARNING 04: minimum elevation drop used for Conduit CN61_S10
  WARNING 04: minimum elevation drop used for Conduit CN61_S11
  WARNING 04: minimum elevation drop used for Conduit CN61_S12
  WARNING 04: minimum elevation drop used for Conduit CN61_S13
  WARNING 04: minimum elevation drop used for Conduit CN61_S14
  WARNING 04: minimum elevation drop used for Conduit CN61_S15
  WARNING 04: minimum elevation drop used for Conduit CN61_S16
  WARNING 04: minimum elevation drop used for Conduit CN61_S17
  WARNING 04: minimum elevation drop used for Conduit CN61_S18_0
  WARNING 04: minimum elevation drop used for Conduit CN61_S18_1
  WARNING 04: minimum elevation drop used for Conduit CN61_S19
  WARNING 04: minimum elevation drop used for Conduit CN61_S20
  WARNING 04: minimum elevation drop used for Conduit CN61_S21
  WARNING 04: minimum elevation drop used for Conduit CN61_S22
  WARNING 04: minimum elevation drop used for Conduit CN62_S0
  WARNING 04: minimum elevation drop used for Conduit CN64_S1
  WARNING 04: minimum elevation drop used for Conduit CN66_S0
  WARNING 04: minimum elevation drop used for Conduit CN67_S0
  WARNING 04: minimum elevation drop used for Conduit CN67_S1
  WARNING 04: minimum elevation drop used for Conduit CN67_S2
  WARNING 04: minimum elevation drop used for Conduit CN67_S3
  WARNING 04: minimum elevation drop used for Conduit CN67_S4
  WARNING 04: minimum elevation drop used for Conduit CN67_S5
  WARNING 04: minimum elevation drop used for Conduit CN67_S7
  WARNING 04: minimum elevation drop used for Conduit CN67_S8
  WARNING 04: minimum elevation drop used for Conduit CN67_S9
  WARNING 04: minimum elevation drop used for Conduit CN67_S12
  WARNING 04: minimum elevation drop used for Conduit CN67_S13
  WARNING 04: minimum elevation drop used for Conduit CN69_S0
  WARNING 04: minimum elevation drop used for Conduit CN70_S1
  WARNING 04: minimum elevation drop used for Conduit CN70_S2
  WARNING 04: minimum elevation drop used for Conduit CN70_S3
  WARNING 04: minimum elevation drop used for Conduit CN70_S4
  WARNING 04: minimum elevation drop used for Conduit CN70_S5
  WARNING 04: minimum elevation drop used for Conduit CN70_S6
  WARNING 04: minimum elevation drop used for Conduit CN70_S7
  WARNING 04: minimum elevation drop used for Conduit CN70_S8_0
  WARNING 04: minimum elevation drop used for Conduit CN70_S8_1
  WARNING 04: minimum elevation drop used for Conduit CN70_S9
  WARNING 04: minimum elevation drop used for Conduit CN70_S10
  WARNING 04: minimum elevation drop used for Conduit CN70_S11
  WARNING 04: minimum elevation drop used for Conduit CN70_S12
  WARNING 04: minimum elevation drop used for Conduit CN70_S14
  WARNING 04: minimum elevation drop used for Conduit CN70_S15
  WARNING 04: minimum elevation drop used for Conduit CN70_S16
  WARNING 04: minimum elevation drop used for Conduit CN70_S17
  WARNING 04: minimum elevation drop used for Conduit CN70_S18
  WARNING 04: minimum elevation drop used for Conduit CN70_S19
  WARNING 04: minimum elevation drop used for Conduit CN70_S20
  WARNING 04: minimum elevation drop used for Conduit CN70_S21
  WARNING 04: minimum elevation drop used for Conduit CN70_S22
  WARNING 04: minimum elevation drop used for Conduit CN71_S1
  WARNING 04: minimum elevation drop used for Conduit CN71_S2
  WARNING 04: minimum elevation drop used for Conduit CN71_S3
  WARNING 04: minimum elevation drop used for Conduit CN71_S4
[...]
  WARNING 04: minimum elevation drop used for Conduit CN90_S77
  WARNING 04: minimum elevation drop used for Conduit CN90_S78
  WARNING 04: minimum elevation drop used for Conduit CN90_S79
  WARNING 04: minimum elevation drop used for Conduit CN90_S80
  WARNING 04: minimum elevation drop used for Conduit CN90_S81
  WARNING 04: minimum elevation drop used for Conduit CN90_S82
  WARNING 04: minimum elevation drop used for Conduit CN90_S83
  WARNING 04: minimum elevation drop used for Conduit CN90_S84
  WARNING 04: minimum elevation drop used for Conduit CN90_S85
  WARNING 04: minimum elevation drop used for Conduit CN90_S86
  WARNING 04: minimum elevation drop used for Conduit CN90_S87
  WARNING 04: minimum elevation drop used for Conduit CN91_S1
  WARNING 04: minimum elevation drop used for Conduit CN91_S2
  WARNING 04: minimum elevation drop used for Conduit CN91_S3
  WARNING 04: minimum elevation drop used for Conduit CN91_S5
  WARNING 04: minimum elevation drop used for Conduit CN91_S7
  WARNING 04: minimum elevation drop used for Conduit CN91_S8
  WARNING 04: minimum elevation drop used for Conduit CN91_S9
  WARNING 04: minimum elevation drop used for Conduit CN91_S10
  WARNING 04: minimum elevation drop used for Conduit CN91_S12
  WARNING 04: minimum elevation drop used for Conduit CN91_S13
  WARNING 04: minimum elevation drop used for Conduit CN91_S14
  WARNING 04: minimum elevation drop used for Conduit CN91_S16
  WARNING 04: minimum elevation drop used for Conduit CN91_S17
  WARNING 04: minimum elevation drop used for Conduit CN91_S18
  WARNING 04: minimum elevation drop used for Conduit CN91_S19
  WARNING 04: minimum elevation drop used for Conduit CN91_S20
  WARNING 04: minimum elevation drop used for Conduit CN91_S21
  WARNING 04: minimum elevation drop used for Conduit CN92_S1
  WARNING 04: minimum elevation drop used for Conduit CN92_S2_0
  WARNING 04: minimum elevation drop used for Conduit CN92_S2_1
  WARNING 04: minimum elevation drop used for Conduit CN92_S3
  WARNING 04: minimum elevation drop used for Conduit CN92_S4
  WARNING 04: minimum elevation drop used for Conduit CN92_S5
  WARNING 04: minimum elevation drop used for Conduit CN92_S6
  WARNING 04: minimum elevation drop used for Conduit CN92_S7
  WARNING 04: minimum elevation drop used for Conduit CN92_S8
  WARNING 04: minimum elevation drop used for Conduit CN92_S10
  WARNING 04: minimum elevation drop used for Conduit CN92_S11
  WARNING 04: minimum elevation drop used for Conduit CN92_S12
  WARNING 04: minimum elevation drop used for Conduit CN92_S13
  WARNING 04: minimum elevation drop used for Conduit CN92_S14
  WARNING 04: minimum elevation drop used for Conduit CN92_S15
  WARNING 04: minimum elevation drop used for Conduit CN92_S16
  WARNING 04: minimum elevation drop used for Conduit CN92_S17
  WARNING 04: minimum elevation drop used for Conduit CN92_S18
  WARNING 04: minimum elevation drop used for Conduit CN92_S19
  WARNING 04: minimum elevation drop used for Conduit CN92_S20
  WARNING 04: minimum elevation drop used for Conduit CN93_S0
  WARNING 04: minimum elevation drop used for Conduit CN93_S1
  WARNING 04: minimum elevation drop used for Conduit CN93_S2
  WARNING 04: minimum elevation drop used for Conduit CN93_S4
  WARNING 04: minimum elevation drop used for Conduit CN93_S5
  WARNING 04: minimum elevation drop used for Conduit CN93_S6
  WARNING 04: minimum elevation drop used for Conduit CN95_S0
  WARNING 04: minimum elevation drop used for Conduit CN95_S1
  WARNING 04: minimum elevation drop used for Conduit CN95_S2
  WARNING 04: minimum elevation drop used for Conduit CN95_S3
  WARNING 04: minimum elevation drop used for Conduit CN95_S5
  WARNING 04: minimum elevation drop used for Conduit CN96_S0
  WARNING 04: minimum elevation drop used for Conduit CN96_S1
  WARNING 04: minimum elevation drop used for Conduit CN96_S2
  WARNING 04: minimum elevation drop used for Conduit CN96_S3
  WARNING 04: minimum elevation drop used for Conduit CN96_S4
  WARNING 04: minimum elevation drop used for Conduit CN96_S6
  WARNING 04: minimum elevation drop used for Conduit CN96_S7
  WARNING 04: minimum elevation drop used for Conduit CN97_S1
  WARNING 04: minimum elevation drop used for Conduit CN97_S2
  WARNING 04: minimum elevation drop used for Conduit CN97_S3
  WARNING 04: minimum elevation drop used for Conduit CN97_S4
  WARNING 04: minimum elevation drop used for Conduit CN97_S5
  WARNING 04: minimum elevation drop used for Conduit CN97_S6
  WARNING 04: minimum elevation drop used for Conduit CN97_S7
  WARNING 04: minimum elevation drop used for Conduit CN97_S8
  WARNING 04: minimum elevation drop used for Conduit CN97_S9
  WARNING 04: minimum elevation drop used for Conduit CN97_S10
  WARNING 04: minimum elevation drop used for Conduit CN98_S0
  WARNING 04: minimum elevation drop used for Conduit CN98_S1
  WARNING 04: minimum elevation drop used for Conduit CN98_S2
  WARNING 04: minimum elevation drop used for Conduit CN98_S4
  WARNING 04: minimum elevation drop used for Conduit CN98_S5
  WARNING 04: minimum elevation drop used for Conduit CN98_S6
  WARNING 04: minimum elevation drop used for Conduit CN98_S7
  WARNING 04: minimum elevation drop used for Conduit CN98_S9
  WARNING 04: minimum elevation drop used for Conduit CN98_S10
  WARNING 04: minimum elevation drop used for Conduit CN98_S13
  WARNING 04: minimum elevation drop used for Conduit CN98_S14
  WARNING 04: minimum elevation drop used for Conduit CN98_S15
  WARNING 04: minimum elevation drop used for Conduit CN98_S17
  WARNING 04: minimum elevation drop used for Conduit CN98_S18
  WARNING 04: minimum elevation drop used for Conduit CN98_S20
  WARNING 04: minimum elevation drop used for Conduit CN98_S21
  WARNING 04: minimum elevation drop used for Conduit CN98_S22
  WARNING 04: minimum elevation drop used for Conduit CN98_S23
  WARNING 04: minimum elevation drop used for Conduit CN98_S24
  WARNING 04: minimum elevation drop used for Conduit CN98_S25
  WARNING 04: minimum elevation drop used for Conduit CN99_S0
  WARNING 04: minimum elevation drop used for Conduit CN99_S1
  WARNING 04: minimum elevation drop used for Conduit CN99_S2
  WARNING 04: minimum elevation drop used for Conduit CN99_S3
  WARNING 04: minimum elevation drop used for Conduit CN99_S4
  WARNING 04: minimum elevation drop used for Conduit CN99_S5
  WARNING 04: minimum elevation drop used for Conduit CN99_S6
  WARNING 04: minimum elevation drop used for Conduit CN99_S7
  WARNING 04: minimum elevation drop used for Conduit CN99_S8
  WARNING 04: minimum elevation drop used for Conduit CN99_S9
  WARNING 04: minimum elevation drop used for Conduit CN99_S10
  WARNING 04: minimum elevation drop used for Conduit CN99_S12
  WARNING 04: minimum elevation drop used for Conduit CN99_S13
  WARNING 04: minimum elevation drop used for Conduit CN100_S2
  WARNING 04: minimum elevation drop used for Conduit CN101_S1
  WARNING 04: minimum elevation drop used for Conduit CN102_S0
  WARNING 04: minimum elevation drop used for Conduit CN104_S0
  WARNING 04: minimum elevation drop used for Conduit CN105_S0
  WARNING 04: minimum elevation drop used for Conduit CN106_S0
  WARNING 04: minimum elevation drop used for Conduit CN108_S1
  WARNING 04: minimum elevation drop used for Conduit CN111_S1
  WARNING 04: minimum elevation drop used for Conduit CN111_S2
  WARNING 04: minimum elevation drop used for Conduit CN111_S3
  WARNING 04: minimum elevation drop used for Conduit CN111_S4
  WARNING 04: minimum elevation drop used for Conduit CN111_S5
  WARNING 04: minimum elevation drop used for Conduit CN111_S6
  WARNING 04: minimum elevation drop used for Conduit CN111_S7
  WARNING 04: minimum elevation drop used for Conduit CN111_S8
  WARNING 04: minimum elevation drop used for Conduit CN111_S9
  WARNING 04: minimum elevation drop used for Conduit CN111_S10
  WARNING 04: minimum elevation drop used for Conduit CN111_S11
  WARNING 04: minimum elevation drop used for Conduit CN111_S12
  WARNING 04: minimum elevation drop used for Conduit CN111_S13
  WARNING 04: minimum elevation drop used for Conduit CN111_S14
  WARNING 04: minimum elevation drop used for Conduit CN111_S15
  WARNING 04: minimum elevation drop used for Conduit CN111_S16
  WARNING 04: minimum elevation drop used for Conduit CN111_S17
  WARNING 04: minimum elevation drop used for Conduit CN111_S19
  WARNING 04: minimum elevation drop used for Conduit CN111_S20
  WARNING 04: minimum elevation drop used for Conduit CN114_S0
  WARNING 04: minimum elevation drop used for Conduit CN115_S0
  WARNING 04: minimum elevation drop used for Conduit CN115_S1
  WARNING 04: minimum elevation drop used for Conduit CN115_S2
  WARNING 04: minimum elevation drop used for Conduit CN115_S3
  WARNING 04: minimum elevation drop used for Conduit CN115_S4
  WARNING 04: minimum elevation drop used for Conduit CN115_S5
  WARNING 04: minimum elevation drop used for Conduit CN115_S6
  WARNING 04: minimum elevation drop used for Conduit CN115_S7
  WARNING 04: minimum elevation drop used for Conduit CN115_S9
  WARNING 04: minimum elevation drop used for Conduit CN115_S10
  WARNING 04: minimum elevation drop used for Conduit CN115_S11
  WARNING 04: minimum elevation drop used for Conduit CN115_S12
  WARNING 04: minimum elevation drop used for Conduit CN115_S13
  WARNING 04: minimum elevation drop used for Conduit CN115_S14
  WARNING 04: minimum elevation drop used for Conduit CN115_S15
  WARNING 04: minimum elevation drop used for Conduit CN115_S16
  WARNING 04: minimum elevation drop used for Conduit CN115_S17
  WARNING 04: minimum elevation drop used for Conduit CN115_S18
  WARNING 04: minimum elevation drop used for Conduit CN115_S20
  WARNING 04: minimum elevation drop used for Conduit CN115_S21
  WARNING 04: minimum elevation drop used for Conduit CN116_S0
  WARNING 04: minimum elevation drop used for Conduit CN116_S1
  WARNING 04: minimum elevation drop used for Conduit CN116_S2
  WARNING 04: minimum elevation drop used for Conduit CN116_S4
  WARNING 04: minimum elevation drop used for Conduit CN116_S5
  WARNING 04: minimum elevation drop used for Conduit CN116_S6
  WARNING 04: minimum elevation drop used for Conduit CN116_S7
  WARNING 04: minimum elevation drop used for Conduit CN116_S8
  WARNING 04: minimum elevation drop used for Conduit CN116_S9
  WARNING 04: minimum elevation drop used for Conduit CN116_S10
  WARNING 04: minimum elevation drop used for Conduit CN116_S12
  WARNING 04: minimum elevation drop used for Conduit CN116_S13
  WARNING 04: minimum elevation drop used for Conduit CN116_S14
  WARNING 04: minimum elevation drop used for Conduit CN116_S15
  WARNING 04: minimum elevation drop used for Conduit CN116_S16
  WARNING 04: minimum elevation drop used for Conduit CN116_S17
  WARNING 04: minimum elevation drop used for Conduit CN116_S18
  WARNING 04: minimum elevation drop used for Conduit CN116_S20
  WARNING 04: minimum elevation drop used for Conduit CN116_S21
  WARNING 04: minimum elevation drop used for Conduit CN117_S2
  WARNING 04: minimum elevation drop used for Conduit CN117_S3
  WARNING 04: minimum elevation drop used for Conduit CN117_S4
  WARNING 04: minimum elevation drop used for Conduit CN117_S5
  WARNING 04: minimum elevation drop used for Conduit CN117_S6
  WARNING 04: minimum elevation drop used for Conduit CN117_S7
  WARNING 04: minimum elevation drop used for Conduit CN117_S9
  WARNING 04: minimum elevation drop used for Conduit CN117_S10
  WARNING 04: minimum elevation drop used for Conduit CN117_S12
  WARNING 04: minimum elevation drop used for Conduit CN117_S13
  WARNING 04: minimum elevation drop used for Conduit CN118_S0
  WARNING 04: minimum elevation drop used for Conduit CN119_S0
  WARNING 04: minimum elevation drop used for Conduit CN121_S0
  WARNING 04: minimum elevation drop used for Conduit CN121_S2
  WARNING 04: minimum elevation drop used for Conduit CN121_S4
  WARNING 04: minimum elevation drop used for Conduit CN122_S0
  WARNING 04: minimum elevation drop used for Conduit CN122_S1
  WARNING 04: minimum elevation drop used for Conduit CN122_S2
  WARNING 04: minimum elevation drop used for Conduit CN122_S4
  WARNING 04: minimum elevation drop used for Conduit CN123_S1
  WARNING 04: minimum elevation drop used for Conduit CN123_S2
  WARNING 04: minimum elevation drop used for Conduit CN123_S3
  WARNING 04: minimum elevation drop used for Conduit CN123_S4
  WARNING 04: minimum elevation drop used for Conduit CN123_S6
  WARNING 04: minimum elevation drop used for Conduit CN123_S9
  WARNING 04: minimum elevation drop used for Conduit CN123_S10
  WARNING 04: minimum elevation drop used for Conduit CN123_S11
  WARNING 04: minimum elevation drop used for Conduit CN124_S0
  WARNING 04: minimum elevation drop used for Conduit CN124_S1_0
  WARNING 04: minimum elevation drop used for Conduit CN125_S0
  WARNING 04: minimum elevation drop used for Conduit CN126_S0
  WARNING 04: minimum elevation drop used for Conduit CN127_S0
  WARNING 04: minimum elevation drop used for Conduit CN127_S2
  WARNING 04: minimum elevation drop used for Conduit CN127_S3
  WARNING 04: minimum elevation drop used for Conduit CN127_S4
  WARNING 04: minimum elevation drop used for Conduit CN129_S0
  WARNING 04: minimum elevation drop used for Conduit CN129_S1
  WARNING 04: minimum elevation drop used for Conduit CN129_S2
  WARNING 04: minimum elevation drop used for Conduit CN129_S3
  WARNING 04: minimum elevation drop used for Conduit CN129_S4
  WARNING 04: minimum elevation drop used for Conduit CN130_S0
  WARNING 04: minimum elevation drop used for Conduit CN130_S1_0
  WARNING 04: minimum elevation drop used for Conduit CN130_S1_1
  WARNING 04: minimum elevation drop used for Conduit CN131_S0
  WARNING 08: elevation drop exceeds length for Conduit CN131_S1
  WARNING 04: minimum elevation drop used for Conduit CN131_S2
  WARNING 04: minimum elevation drop used for Conduit CN131_S3
  WARNING 04: minimum elevation drop used for Conduit CN131_S4
  WARNING 04: minimum elevation drop used for Conduit CN131_S5
  WARNING 04: minimum elevation drop used for Conduit CN131_S6
  WARNING 04: minimum elevation drop used for Conduit CN131_S7
  WARNING 04: minimum elevation drop used for Conduit CN131_S8
  WARNING 04: minimum elevation drop used for Conduit CN131_S9
  WARNING 04: minimum elevation drop used for Conduit CN131_S10
  WARNING 04: minimum elevation drop used for Conduit CN131_S11
  WARNING 04: minimum elevation drop used for Conduit CN131_S12
  WARNING 04: minimum elevation drop used for Conduit CN131_S15
  WARNING 04: minimum elevation drop used for Conduit CN131_S16
  WARNING 04: minimum elevation drop used for Conduit CN131_S17
  WARNING 04: minimum elevation drop used for Conduit CN131_S18
  WARNING 04: minimum elevation drop used for Conduit CN131_S19
  WARNING 04: minimum elevation drop used for Conduit CN132_S0
  WARNING 04: minimum elevation drop used for Conduit CN132_S1_0
  WARNING 04: minimum elevation drop used for Conduit CN134_S0
  WARNING 04: minimum elevation drop used for Conduit CN134_S1_1
  WARNING 04: minimum elevation drop used for Conduit CN134_S2
  WARNING 04: minimum elevation drop used for Conduit RN1_S1
  WARNING 04: minimum elevation drop used for Conduit RN1_S6
  WARNING 04: minimum elevation drop used for Conduit RN1_S9
  WARNING 04: minimum elevation drop used for Conduit RN1_S12
  WARNING 04: minimum elevation drop used for Conduit RN1_S13
  WARNING 04: minimum elevation drop used for Conduit RN1_S16
  WARNING 04: minimum elevation drop used for Conduit RN1_S30
  WARNING 04: minimum elevation drop used for Conduit RN1_S32
  WARNING 04: minimum elevation drop used for Conduit RN1_S33
  WARNING 04: minimum elevation drop used for Conduit RN1_S38
  WARNING 04: minimum elevation drop used for Conduit RN1_S40
  WARNING 02: maximum depth increased for Node CNJ12_0
  WARNING 02: maximum depth increased for Node CNJ16_20
  WARNING 02: maximum depth increased for Node CNJ115_1
  WARNING 02: maximum depth increased for Node CD1063_up
  WARNING 02: maximum depth increased for Node CD2191_up
  
  ****************
  Analysis Options
  ****************
  Flow Units ............... CMS
  Process Models:
    Rainfall/Runoff ........ YES
    RDII ................... NO
    Snowmelt ............... NO
    Groundwater ............ NO
    Flow Routing ........... YES
    Ponding Allowed ........ YES
    Water Quality .......... NO
  Infiltration Method ...... MODIFIED_GREEN_AMPT
  Flow Routing Method ...... DYNWAVE
  Surcharge Method ......... EXTRAN
  Starting Date ............ 01/01/2025 00:00:00
  Ending Date .............. 01/02/2025 00:00:00
  Antecedent Dry Days ...... 0.0
  Report Time Step ......... 00:05:00
  Wet Time Step ............ 00:01:00
  Dry Time Step ............ 01:00:00
  Routing Time Step ........ 30.00 sec
  Variable Time Step ....... YES
  Maximum Trials ........... 8
  Number of Threads ........ 1
  Head Tolerance ........... 0.001500 m
  
  
  **************************        Volume         Depth
  Runoff Quantity Continuity     hectare-m            mm
  **************************     ---------       -------
  Total Precipitation ......         3.111        66.200
  Evaporation Loss .........         0.000         0.000
  Infiltration Loss ........         2.324        49.439
  Surface Runoff ...........         0.773        16.449
  Final Storage ............         0.015         0.313
  Continuity Error (%) .....        -0.000
  
  
  **************************        Volume        Volume
  Flow Routing Continuity        hectare-m      10^6 ltr
  **************************     ---------     ---------
  Dry Weather Inflow .......         0.000         0.000
  Wet Weather Inflow .......         0.773         7.731
  Groundwater Inflow .......         0.000         0.000
  RDII Inflow ..............         0.000         0.000
  External Inflow ..........         0.000         0.000
  External Outflow .........         0.000         0.000
  Flooding Loss ............         0.743         7.428
  Evaporation Loss .........         0.000         0.000
  Exfiltration Loss ........         0.000         0.000
  Initial Stored Volume ....         0.000         0.004
  Final Stored Volume ......         0.035         0.350
  Continuity Error (%) .....        -0.554
  
  
  *************************
  Highest Continuity Errors
  *************************
  Node CD2206_dn (-1627.49%)
  Node CNJ82_2 (100.00%)
  Node CNJ19_16 (92.80%)
  Node CNJ19_15 (-5.51%)
  Node CD3471_dn (-2.97%)
  
  
  ***************************
  Time-Step Critical Elements
  ***************************
  Link CN19_S9 (54.58%)
  Link CN19_S15 (24.77%)
  
  
  ********************************
  Highest Flow Instability Indexes
  ********************************
  Link NT10-3_3471 (116)
  Link CN72_S0 (102)
  Link CN19_S8 (91)
  Link CN19_S9 (22)
  Link CN19_S15 (12)
  
  
  *********************************
  Most Frequent Nonconverging Nodes
  *********************************
  Node OF_SR (44.42%)
  Node CNJ19_16 (39.58%)
  Node CD3471_dn (12.19%)
  Node CD2206_dn (11.04%)
  Node CNJ19_8 (5.53%)
  
  
  *************************
  Routing Time Step Summary
  *************************
  Minimum Time Step           :     4.45 sec
  Average Time Step           :    15.76 sec
  Maximum Time Step           :    30.00 sec
  % of Time in Steady State   :     0.00
  Average Iterations per Step :     6.60
  % of Steps Not Converging   :    44.42
  Time Step Frequencies       :
     30.000 - 13.228 sec      :    42.33 %
     13.228 -  5.833 sec      :    57.34 %
      5.833 -  2.572 sec      :     0.33 %
      2.572 -  1.134 sec      :     0.00 %
      1.134 -  0.500 sec      :     0.00 %
  
  
  ***************************
  Analysis begun on:  Wed Mar 25 16:36:01 2026
  Analysis ended on:  Wed Mar 25 16:36:07 2026
  Total elapsed time: 00:00:06
